file 243387 1774137959                                          
version 3
run Scenario1_Baseline-0-20260321-23:59:46-19252
attr configname Scenario1_Baseline
attr datetime 20260321-23:59:46
attr datetimef 20260321-235946
attr experiment Scenario1_Baseline
attr inifile omnetpp.ini
attr iterationvars ""
attr iterationvarsd ""
attr iterationvarsf ""
attr measurement ""
attr network BluetoothNetwork
attr processid 19252
attr repetition 0
attr replication #0
attr resultdir results
attr runnumber 0
attr seedset 0
config image-path ../../../Downloads/omnetpp-6.3.0-windows-x86_64/omnetpp-6.3.0/samples/inet4.6/images
config description "Baseline: normal piconet, no attacker active"
config *.attacker1.numApps 0
config *.attacker2.numApps 0
config network BluetoothNetwork
config *.**.wlan[0].radio.receiver.energyDetection -85dBm
config *.**.wlan[0].radio.receiver.sensitivity -85dBm
config sim-time-limit 60s
config **.scalar-recording true
config **.vector-recording true
config *.visualizer.*.displayCommunicationRange true
config *.visualizer.*.displayInterferenceRange true
config *.visualizer.*.displaySignals true
config *.radioMedium.typename RadioMedium
config *.radioMedium.communicationRange 15m
config *.radioMedium.interferenceRange 25m
config *.master.**.wlan[0].typename Ieee80211Interface
config *.master.**.wlan[0].radio.transmitter.power 1mW
config *.master.**.wlan[0].bitrate 2Mbps
config *.slave*.**.wlan[0].typename Ieee80211Interface
config *.slave*.**.wlan[0].radio.transmitter.power 1mW
config *.slave*.**.wlan[0].bitrate 2Mbps
config *.master.mobility.initialX 400m
config *.master.mobility.initialY 300m
config *.slave1.mobility.initialX 250m
config *.slave1.mobility.initialY 200m
config *.slave2.mobility.initialX 550m
config *.slave2.mobility.initialY 200m
config *.slave3.mobility.initialX 400m
config *.slave3.mobility.initialY 450m
config *.attacker1.mobility.initialX 150m
config *.attacker1.mobility.initialY 450m
config *.attacker2.mobility.initialX 650m
config *.attacker2.mobility.initialY 450m
config *.master.mobility.typename StationaryMobility
config *.slave1.mobility.typename StationaryMobility
config *.slave2.mobility.typename StationaryMobility
config *.slave3.mobility.typename StationaryMobility
config *.attacker1.mobility.typename StationaryMobility
config *.attacker2.mobility.typename StationaryMobility
config *.master.numApps 1
config *.master.app[0].typename UdpBasicApp
config *.master.app[0].destAddresses "\"slave1 slave2 slave3\""
config *.master.app[0].destPort 5000
config *.master.app[0].messageLength 200B
config *.master.app[0].sendInterval 0.02s
config *.slave1.numApps 1
config *.slave1.app[0].typename UdpSink
config *.slave1.app[0].localPort 5000
config *.slave2.numApps 1
config *.slave2.app[0].typename UdpSink
config *.slave2.app[0].localPort 5000
config *.slave3.numApps 1
config *.slave3.app[0].typename UdpSink
config *.slave3.app[0].localPort 5000

vector 0 BluetoothNetwork.master.lo[0].lo rcvdPkFromHl:vector(packetBytes) ETV
attr interpolationmode none
attr recordingmode vector(packetBytes)
attr source packetReceivedFromUpper
attr title "packets received from higher layer, packetBytes"
vector 1 BluetoothNetwork.master.lo[0].lo passedUpPk:vector(packetBytes) ETV
attr interpolationmode none
attr recordingmode vector(packetBytes)
attr source packetSentToUpper
attr title "packets passed to higher layer, packetBytes"
vector 2 BluetoothNetwork.master.lo[0] packetDropInterfaceDown:vector(packetBytes) ETV
attr interpolationmode none
attr recordingmode vector(packetBytes)
attr source packetDropReasonIsInterfaceDown(packetDropped)
attr title "packet drops: interface down, packetBytes"
vector 3 BluetoothNetwork.master.lo[0] packetDropNoCarrier:vector(packetBytes) ETV
attr interpolationmode none
attr recordingmode vector(packetBytes)
attr source packetDropReasonIsNoCarrier(packetDropped)
attr title "packet drops: no carrier, packetBytes"
vector 4 BluetoothNetwork.master.wlan[0].agent sentRequest:vector ETV
attr recordingmode vector
attr title "sent requests"
vector 5 BluetoothNetwork.master.wlan[0].agent acceptConfirm:vector ETV
attr recordingmode vector
attr title "accepted confirms"
vector 6 BluetoothNetwork.master.wlan[0].agent dropConfirm:vector ETV
attr recordingmode vector
attr title "dropped confirms"
vector 7 BluetoothNetwork.master.wlan[0].mac.dcf.channelAccess.pendingQueue queueLength:vector ETV
attr autoWarmupFilter false
attr interpolationmode sample-hold
attr recordingmode vector
attr source "warmup(atomic(constant0(packetPushEnded) + count(packetPushStarted) - count(packetPulled) - count(packetRemoved) - count(packetDropped)))"
attr title "queue length"
attr unit pk
vector 8 BluetoothNetwork.master.wlan[0].mac.dcf.channelAccess.pendingQueue queueBitLength:vector ETV
attr autoWarmupFilter false
attr interpolationmode sample-hold
attr recordingmode vector
attr source "warmup(atomic(constant0(packetPushEnded) + sum(packetLength(packetPushStarted)) - sum(packetLength(packetPulled)) - sum(packetLength(packetRemoved)) - sum(packetLength(packetDropped))))"
attr title "queue bit length"
attr unit b
vector 9 BluetoothNetwork.master.wlan[0].mac.dcf.channelAccess.pendingQueue queueingTime:vector ETV
attr interpolationmode none
attr recordingmode vector
attr source queueingTime(packetPulled)
attr title "queueing times"
attr unit s
vector 10 BluetoothNetwork.master.wlan[0].mac.dcf.channelAccess.pendingQueue incomingPacketLengths:vector ETV
attr interpolationmode none
attr recordingmode vector
attr source packetLength(packetPushStarted)
attr title "incoming packet lengths"
attr unit b
vector 11 BluetoothNetwork.master.wlan[0].mac.dcf.channelAccess.pendingQueue incomingDataRate:vector ETV
attr interpolationmode linear
attr recordingmode vector
attr source throughput(packetPushStarted)
attr title "incoming datarate"
attr unit bps
vector 12 BluetoothNetwork.master.wlan[0].mac.dcf.channelAccess.pendingQueue outgoingPacketLengths:vector ETV
attr interpolationmode none
attr recordingmode vector
attr source packetLength(packetPulled)
attr title "outgoing packet lengths"
attr unit b
vector 13 BluetoothNetwork.master.wlan[0].mac.dcf.channelAccess.pendingQueue outgoingDataRate:vector ETV
attr interpolationmode linear
attr recordingmode vector
attr source throughput(packetPulled)
attr title "outgoing datarate"
attr unit bps
vector 14 BluetoothNetwork.master.wlan[0].mac.dcf.channelAccess.pendingQueue droppedPacketLengthsQueueOverflow:vector ETV
attr interpolationmode none
attr recordingmode vector
attr source packetLength(packetDropReasonIsQueueOverflow(packetDropped))
attr title "dropped packet lengths: queue overflow"
attr unit b
vector 15 BluetoothNetwork.master.wlan[0].mac.dcf.channelAccess.pendingQueue flowQueueingTime:vector ETV
attr interpolationmode none
attr recordingmode vector
attr source queueingTime(demuxFlow(packetPulled))
attr title "flow queueing times"
attr unit s
vector 16 BluetoothNetwork.master.wlan[0].mac.dcf.channelAccess.pendingQueue flowIncomingDataRate:vector ETV
attr interpolationmode linear
attr recordingmode vector
attr source throughput(flowPacketLength(demuxFlow(packetPushStarted)))
attr title "flow specific incoming data rate"
attr unit bps
vector 17 BluetoothNetwork.master.wlan[0].mac.dcf.channelAccess.pendingQueue flowOutgoingDataRate:vector ETV
attr interpolationmode linear
attr recordingmode vector
attr source throughput(flowPacketLength(demuxFlow(packetPulled)))
attr title "flow specific outgoing data rate"
attr unit bps
vector 18 BluetoothNetwork.master.wlan[0].mac.dcf.channelAccess.inProgressFrames queueingTime:vector ETV
attr interpolationmode none
attr recordingmode vector
attr source queueingTime(packetDequeued)
attr title "queueing times"
vector 19 BluetoothNetwork.master.wlan[0].mac.dcf.channelAccess.inProgressFrames queueLength:vector ETV
attr autoWarmupFilter false
attr interpolationmode sample-hold
attr recordingmode vector
attr source "warmup(count(packetEnqueued) - count(packetDequeued))"
attr title "queue length"
vector 20 BluetoothNetwork.master.wlan[0].mac.dcf.channelAccess.contention backoffPeriodGenerated:vector ETV
attr interpolationmode none
attr recordingmode vector
attr title "backoff periods"
vector 21 BluetoothNetwork.master.wlan[0].mac.dcf.channelAccess.contention backoffActive:vector ETV
attr autoWarmupFilter false
attr interpolationmode sample-hold
attr recordingmode vector
attr source warmup(count(backoffStarted)-count(backoffStopped))
attr title "backoff active"
vector 22 BluetoothNetwork.master.wlan[0].mac.dcf.channelAccess.contention stateChanged:vector ETV
attr enum IDLE,DEFER,IFS_AND_BACKOFF
attr interpolationmode none
attr recordingmode vector
attr title "contention state changed"
attr type enum
vector 23 BluetoothNetwork.master.wlan[0].mac.dcf.recipientMacDataService packetDropDuplicateDetected:vector(packetBytes) ETV
attr interpolationmode none
attr recordingmode vector(packetBytes)
attr source packetDropReasonIsDuplicateDetected(packetDropped)
attr title "packet drops: duplicate detected, packetBytes"
vector 24 BluetoothNetwork.master.wlan[0].mac.dcf.recoveryProcedure contentionWindowChanged:vector ETV
attr interpolationmode sample-hold
attr recordingmode vector
attr title "contention window"
vector 25 BluetoothNetwork.master.wlan[0].mac.dcf packetSentToPeer:vector(packetBytes) ETV
attr interpolationmode none
attr recordingmode vector(packetBytes)
attr title "packets sent, packetBytes"
vector 26 BluetoothNetwork.master.wlan[0].mac.dcf packetSentToPeerUnicast:vector(packetBytes) ETV
attr interpolationmode none
attr recordingmode vector(packetBytes)
attr source ieee80211Unicast(packetSentToPeer)
attr title "packets sent: unicast, packetBytes"
vector 27 BluetoothNetwork.master.wlan[0].mac.dcf packetSentToPeerMulticast:vector(packetBytes) ETV
attr interpolationmode none
attr recordingmode vector(packetBytes)
attr source ieee80211Multicast(packetSentToPeer)
attr title "packets sent: multicast, packetBytes"
vector 28 BluetoothNetwork.master.wlan[0].mac.dcf packetSentToPeerBroadcast:vector(packetBytes) ETV
attr interpolationmode none
attr recordingmode vector(packetBytes)
attr source ieee80211Broadcast(packetSentToPeer)
attr title "packets sent: broadcast , packetBytes"
vector 29 BluetoothNetwork.master.wlan[0].mac.dcf packetSentToPeerWithRetry:vector(packetBytes) ETV
attr interpolationmode none
attr recordingmode vector(packetBytes)
attr source ieee80211Retry(packetSentToPeer)
attr title "packets sent: with retry, packetBytes"
vector 30 BluetoothNetwork.master.wlan[0].mac.dcf packetSentToPeerWithoutRetry:vector(packetBytes) ETV
attr interpolationmode none
attr recordingmode vector(packetBytes)
attr source ieee80211NotRetry(packetSentToPeer)
attr title "packets sent: without retry, packetBytes"
vector 31 BluetoothNetwork.master.wlan[0].mac.dcf packetReceivedFromPeer:vector(packetBytes) ETV
attr interpolationmode none
attr recordingmode vector(packetBytes)
attr title "packets received, packetBytes"
vector 32 BluetoothNetwork.master.wlan[0].mac.dcf packetReceivedFromPeerUnicast:vector(packetBytes) ETV
attr interpolationmode none
attr recordingmode vector(packetBytes)
attr source ieee80211Unicast(packetReceivedFromPeer)
attr title "packets received: unicast, packetBytes"
vector 33 BluetoothNetwork.master.wlan[0].mac.dcf packetReceivedFromPeerMulticast:vector(packetBytes) ETV
attr interpolationmode none
attr recordingmode vector(packetBytes)
attr source ieee80211Multicast(packetReceivedFromPeer)
attr title "packets received: multicast, packetBytes"
vector 34 BluetoothNetwork.master.wlan[0].mac.dcf packetReceivedFromPeerBroadcast:vector(packetBytes) ETV
attr interpolationmode none
attr recordingmode vector(packetBytes)
attr source ieee80211Broadcast(packetReceivedFromPeer)
attr title "packets received: broadcast, packetBytes"
vector 35 BluetoothNetwork.master.wlan[0].mac.dcf packetReceivedFromPeerWithRetry:vector(packetBytes) ETV
attr interpolationmode none
attr recordingmode vector(packetBytes)
attr source ieee80211Retry(packetReceivedFromPeer)
attr title "packets received: with retry, packetBytes"
vector 36 BluetoothNetwork.master.wlan[0].mac.dcf packetReceivedFromPeerWithoutRetry:vector(packetBytes) ETV
attr interpolationmode none
attr recordingmode vector(packetBytes)
attr source ieee80211NotRetry(packetReceivedFromPeer)
attr title "packets received: without retry, packetBytes"
vector 37 BluetoothNetwork.master.wlan[0].mac.dcf packetDrop:vector(packetBytes) ETV
attr interpolationmode none
attr recordingmode vector(packetBytes)
attr source packetDropped
attr title "packet drops, packetBytes"
vector 38 BluetoothNetwork.master.wlan[0].mac.dcf packetDropNotAddressedToUs:vector(packetBytes) ETV
attr interpolationmode none
attr recordingmode vector(packetBytes)
attr source packetDropReasonIsNotAddressedToUs(packetDropped)
attr title "packet drops: not addressed to us, packetBytes"
vector 39 BluetoothNetwork.master.wlan[0].mac.dcf packetDropQueueOverflow:vector(packetBytes) ETV
attr interpolationmode none
attr recordingmode vector(packetBytes)
attr source packetDropReasonIsQueueOverflow(packetDropped)
attr title "packet drops: queue overflow, packetBytes"
vector 40 BluetoothNetwork.master.wlan[0].mac.dcf packetDropRetryLimitReached:vector(packetBytes) ETV
attr interpolationmode none
attr recordingmode vector(packetBytes)
attr source packetDropReasonIsRetryLimitReached(packetDropped)
attr title "packet drops: retry limit reached, packetBytes"
vector 41 BluetoothNetwork.master.wlan[0].mac.dcf frameSequenceActive:vector ETV
attr autoWarmupFilter false
attr interpolationmode sample-hold
attr recordingmode vector
attr source warmup(count(frameSequenceStarted)-count(frameSequenceFinished))
attr title "frame sequence active"
vector 42 BluetoothNetwork.master.wlan[0].mac.dcf datarateSelected:vector ETV
attr interpolationmode none
attr recordingmode vector
attr title "datarates selected"
vector 43 BluetoothNetwork.master.wlan[0].mac.rx nav:vector ETV
attr interpolationmode linear
attr recordingmode vector
attr source navChanged
attr title "network allocation vector"
vector 44 BluetoothNetwork.master.wlan[0].mac packetSentToUpper:vector(packetBytes) ETV
attr interpolationmode none
attr recordingmode vector(packetBytes)
attr title "packets sent to upper layer, packetBytes"
vector 45 BluetoothNetwork.master.wlan[0].mac packetSentToLower:vector(packetBytes) ETV
attr interpolationmode none
attr recordingmode vector(packetBytes)
attr title "packets sent to lower layer, packetBytes"
vector 46 BluetoothNetwork.master.wlan[0].mac packetReceivedFromUpper:vector(packetBytes) ETV
attr interpolationmode none
attr recordingmode vector(packetBytes)
attr title "packets received from upper layer, packetBytes"
vector 47 BluetoothNetwork.master.wlan[0].mac packetReceivedFromLower:vector(packetBytes) ETV
attr interpolationmode none
attr recordingmode vector(packetBytes)
attr title "packets received from lower layer, packetBytes"
vector 48 BluetoothNetwork.master.wlan[0].mac packetDrop:vector(packetBytes) ETV
attr interpolationmode none
attr recordingmode vector(packetBytes)
attr source packetDropped
attr title "packet drops, packetBytes"
vector 49 BluetoothNetwork.master.wlan[0].mac packetDropIncorrectlyReceived:vector(packetBytes) ETV
attr interpolationmode none
attr recordingmode vector(packetBytes)
attr source packetDropReasonIsIncorrectlyReceived(packetDropped)
attr title "packet drops: incorrectly received, packetBytes"
vector 50 BluetoothNetwork.master.wlan[0].mac packetDropNotAddressedToUs:vector(packetBytes) ETV
attr interpolationmode none
attr recordingmode vector(packetBytes)
attr source packetDropReasonIsNotAddressedToUs(packetDropped)
attr title "packet drops: not addressed to us, packetBytes"
vector 51 BluetoothNetwork.master.wlan[0].mac packetDropQueueOverflow:vector(packetBytes) ETV
attr interpolationmode none
attr recordingmode vector(packetBytes)
attr source packetDropReasonIsQueueOverflow(packetDropped)
attr title "packet drops: queue overflow, packetBytes"
vector 52 BluetoothNetwork.master.wlan[0].mac packetDropRetryLimitReached:vector(packetBytes) ETV
attr interpolationmode none
attr recordingmode vector(packetBytes)
attr source packetDropReasonIsRetryLimitReached(packetDropped)
attr title "packet drops: retry limit reached, packetBytes"
vector 53 BluetoothNetwork.master.wlan[0].mac packetDropDuplicateDetected:vector(packetBytes) ETV
attr interpolationmode none
attr recordingmode vector(packetBytes)
attr source packetDropReasonIsDuplicateDetected(packetDropped)
attr title "packet drops: duplicate detected, packetBytes"
vector 54 BluetoothNetwork.master.wlan[0].mac packetDropOther:vector(packetBytes) ETV
attr interpolationmode none
attr recordingmode vector(packetBytes)
attr source packetDropReasonIsOther(packetDropped)
attr title "packet drops: other, packetBytes"
vector 55 BluetoothNetwork.master.wlan[0].radio radioMode:vector ETV
attr enum OFF,SLEEP,RECEIVER,TRANSMITTER,TRANSCEIVER,SWITCHING
attr interpolationmode sample-hold
attr recordingmode vector
attr source radioModeChanged
attr title "Radio mode"
attr type enum
vector 56 BluetoothNetwork.master.wlan[0].radio receptionState:vector ETV
attr enum UNDEFINED,IDLE,BUSY,RECEIVING
attr interpolationmode sample-hold
attr recordingmode vector
attr source receptionStateChanged
attr title "Radio reception state"
attr type enum
vector 57 BluetoothNetwork.master.wlan[0].radio transmissionState:vector ETV
attr enum UNDEFINED,IDLE,TRANSMITTING
attr interpolationmode sample-hold
attr recordingmode vector
attr source transmissionStateChanged
attr title "Radio transmission state"
attr type enum
vector 58 BluetoothNetwork.master.wlan[0].radio radioChannel:vector ETV
attr interpolationmode sample-hold
attr recordingmode vector
attr source radioChannelChanged
attr title "Radio channel"
vector 59 BluetoothNetwork.master.wlan[0] packetDropInterfaceDown:vector(packetBytes) ETV
attr interpolationmode none
attr recordingmode vector(packetBytes)
attr source packetDropReasonIsInterfaceDown(packetDropped)
attr title "packet drops: interface down, packetBytes"
vector 60 BluetoothNetwork.master.wlan[0] packetDropNoCarrier:vector(packetBytes) ETV
attr interpolationmode none
attr recordingmode vector(packetBytes)
attr source packetDropReasonIsNoCarrier(packetDropped)
attr title "packet drops: no carrier, packetBytes"
vector 61 BluetoothNetwork.master.ipv4.ip packetDropAddressResolutionFailed:vector(packetBytes) ETV
attr interpolationmode none
attr recordingmode vector(packetBytes)
attr source packetDropReasonIsAddressResolutionFailed(packetDropped)
attr title "packet drop: address resolution failed, packetBytes"
vector 62 BluetoothNetwork.master.ipv4.ip packetDropHopLimitReached:vector(packetBytes) ETV
attr interpolationmode none
attr recordingmode vector(packetBytes)
attr source packetDropReasonIsHopLimitReached(packetDropped)
attr title "packet drop: hop limit reached, packetBytes"
vector 63 BluetoothNetwork.master.ipv4.ip packetDropForwardingDisabled:vector(packetBytes) ETV
attr interpolationmode none
attr recordingmode vector(packetBytes)
attr source packetDropReasonIsForwardingDisabled(packetDropped)
attr title "packet drop: forwarding disabled, packetBytes"
vector 64 BluetoothNetwork.master.ipv4.ip packetDropLifetimeExpired:vector(packetBytes) ETV
attr interpolationmode none
attr recordingmode vector(packetBytes)
attr source packetDropReasonIsLifetimeExpired(packetDropped)
attr title "packet drop: lifetime expired, packetBytes"
vector 65 BluetoothNetwork.master.ipv4.ip packetDropNoInterfaceFound:vector(packetBytes) ETV
attr interpolationmode none
attr recordingmode vector(packetBytes)
attr source packetDropReasonIsNoInterfaceFound(packetDropped)
attr title "packet drop: no interface found, packetBytes"
vector 66 BluetoothNetwork.master.ipv4.ip packetDropNoRouteFound:vector(packetBytes) ETV
attr interpolationmode none
attr recordingmode vector(packetBytes)
attr source packetDropReasonIsNoRouteFound(packetDropped)
attr title "packet drop: no route found, packetBytes"
vector 67 BluetoothNetwork.master.ipv4.ip packetDropUndefined:vector(packetBytes) ETV
attr interpolationmode none
attr recordingmode vector(packetBytes)
attr source packetDropReasonIsUndefined(packetDropped)
attr title "packet drop: undefined, packetBytes"
vector 68 BluetoothNetwork.master.ipv4.arp arpRequestSent:vector(packetBytes) ETV
attr recordingmode vector(packetBytes)
attr source arpRequestSent
attr title "ARP request sent, packetBytes"
vector 69 BluetoothNetwork.master.ipv4.arp arpReplySent:vector(packetBytes) ETV
attr recordingmode vector(packetBytes)
attr source arpReplySent
attr title "ARP replies sent, packetBytes"
vector 70 BluetoothNetwork.master.udp packetSent:vector(packetBytes) ETV
attr interpolationmode none
attr recordingmode vector(packetBytes)
attr source packetSent
attr title "packets sent, packetBytes"
vector 71 BluetoothNetwork.master.udp outgoingDataRate:vector ETV
attr interpolationmode linear
attr recordingmode vector
attr source throughput(packetSent)
attr title "outgoing datarate"
attr unit bps
vector 72 BluetoothNetwork.master.udp packetReceived:vector(packetBytes) ETV
attr interpolationmode none
attr recordingmode vector(packetBytes)
attr source packetReceived
attr title "packets received, packetBytes"
vector 73 BluetoothNetwork.master.udp passedUpPk:vector(count) ETV
attr interpolationmode none
attr recordingmode vector(count)
attr source packetSentToUpper
attr title "packets passed up, count"
vector 74 BluetoothNetwork.master.udp droppedPkWrongPort:vector(count) ETV
attr interpolationmode none
attr recordingmode vector(count)
attr source packetDropReasonIsNoPortFound(packetDropped)
attr title "packets dropped (wrong port), count"
vector 75 BluetoothNetwork.master.udp droppedPkBadChecksum:vector(count) ETV
attr interpolationmode none
attr recordingmode vector(count)
attr source packetDropReasonIsIncorrectlyReceived(packetDropped)
attr title "packets dropped (checksum error), count"
vector 76 BluetoothNetwork.master.app[0] packetReceived:vector(packetBytes) ETV
attr interpolationmode none
attr recordingmode vector(packetBytes)
attr source packetReceived
attr title "packets received, packetBytes"
vector 77 BluetoothNetwork.master.app[0] throughput:vector ETV
attr recordingmode vector
attr source throughput(packetReceived)
attr title throughput
attr unit bps
vector 78 BluetoothNetwork.master.app[0] packetSent:vector(packetBytes) ETV
attr interpolationmode none
attr recordingmode vector(packetBytes)
attr source packetSent
attr title "packets sent, packetBytes"
vector 79 BluetoothNetwork.master.app[0] rcvdPkLifetime:vector ETV
attr interpolationmode none
attr recordingmode vector
attr source dataAge(packetReceived)
attr title "received packet lifetime"
attr unit s
vector 80 BluetoothNetwork.master.app[0] rcvdPkSeqNo:vector ETV
attr interpolationmode none
attr recordingmode vector
attr source appPkSeqNo(packetReceived)
attr title "received packet sequence number"
vector 81 BluetoothNetwork.slave1.lo[0].lo rcvdPkFromHl:vector(packetBytes) ETV
attr interpolationmode none
attr recordingmode vector(packetBytes)
attr source packetReceivedFromUpper
attr title "packets received from higher layer, packetBytes"
vector 82 BluetoothNetwork.slave1.lo[0].lo passedUpPk:vector(packetBytes) ETV
attr interpolationmode none
attr recordingmode vector(packetBytes)
attr source packetSentToUpper
attr title "packets passed to higher layer, packetBytes"
vector 83 BluetoothNetwork.slave1.lo[0] packetDropInterfaceDown:vector(packetBytes) ETV
attr interpolationmode none
attr recordingmode vector(packetBytes)
attr source packetDropReasonIsInterfaceDown(packetDropped)
attr title "packet drops: interface down, packetBytes"
vector 84 BluetoothNetwork.slave1.lo[0] packetDropNoCarrier:vector(packetBytes) ETV
attr interpolationmode none
attr recordingmode vector(packetBytes)
attr source packetDropReasonIsNoCarrier(packetDropped)
attr title "packet drops: no carrier, packetBytes"
vector 85 BluetoothNetwork.slave1.wlan[0].agent sentRequest:vector ETV
attr recordingmode vector
attr title "sent requests"
vector 86 BluetoothNetwork.slave1.wlan[0].agent acceptConfirm:vector ETV
attr recordingmode vector
attr title "accepted confirms"
vector 87 BluetoothNetwork.slave1.wlan[0].agent dropConfirm:vector ETV
attr recordingmode vector
attr title "dropped confirms"
vector 88 BluetoothNetwork.slave1.wlan[0].mac.dcf.channelAccess.pendingQueue queueLength:vector ETV
attr autoWarmupFilter false
attr interpolationmode sample-hold
attr recordingmode vector
attr source "warmup(atomic(constant0(packetPushEnded) + count(packetPushStarted) - count(packetPulled) - count(packetRemoved) - count(packetDropped)))"
attr title "queue length"
attr unit pk
vector 89 BluetoothNetwork.slave1.wlan[0].mac.dcf.channelAccess.pendingQueue queueBitLength:vector ETV
attr autoWarmupFilter false
attr interpolationmode sample-hold
attr recordingmode vector
attr source "warmup(atomic(constant0(packetPushEnded) + sum(packetLength(packetPushStarted)) - sum(packetLength(packetPulled)) - sum(packetLength(packetRemoved)) - sum(packetLength(packetDropped))))"
attr title "queue bit length"
attr unit b
vector 90 BluetoothNetwork.slave1.wlan[0].mac.dcf.channelAccess.pendingQueue queueingTime:vector ETV
attr interpolationmode none
attr recordingmode vector
attr source queueingTime(packetPulled)
attr title "queueing times"
attr unit s
vector 91 BluetoothNetwork.slave1.wlan[0].mac.dcf.channelAccess.pendingQueue incomingPacketLengths:vector ETV
attr interpolationmode none
attr recordingmode vector
attr source packetLength(packetPushStarted)
attr title "incoming packet lengths"
attr unit b
vector 92 BluetoothNetwork.slave1.wlan[0].mac.dcf.channelAccess.pendingQueue incomingDataRate:vector ETV
attr interpolationmode linear
attr recordingmode vector
attr source throughput(packetPushStarted)
attr title "incoming datarate"
attr unit bps
vector 93 BluetoothNetwork.slave1.wlan[0].mac.dcf.channelAccess.pendingQueue outgoingPacketLengths:vector ETV
attr interpolationmode none
attr recordingmode vector
attr source packetLength(packetPulled)
attr title "outgoing packet lengths"
attr unit b
vector 94 BluetoothNetwork.slave1.wlan[0].mac.dcf.channelAccess.pendingQueue outgoingDataRate:vector ETV
attr interpolationmode linear
attr recordingmode vector
attr source throughput(packetPulled)
attr title "outgoing datarate"
attr unit bps
vector 95 BluetoothNetwork.slave1.wlan[0].mac.dcf.channelAccess.pendingQueue droppedPacketLengthsQueueOverflow:vector ETV
attr interpolationmode none
attr recordingmode vector
attr source packetLength(packetDropReasonIsQueueOverflow(packetDropped))
attr title "dropped packet lengths: queue overflow"
attr unit b
vector 96 BluetoothNetwork.slave1.wlan[0].mac.dcf.channelAccess.pendingQueue flowQueueingTime:vector ETV
attr interpolationmode none
attr recordingmode vector
attr source queueingTime(demuxFlow(packetPulled))
attr title "flow queueing times"
attr unit s
vector 97 BluetoothNetwork.slave1.wlan[0].mac.dcf.channelAccess.pendingQueue flowIncomingDataRate:vector ETV
attr interpolationmode linear
attr recordingmode vector
attr source throughput(flowPacketLength(demuxFlow(packetPushStarted)))
attr title "flow specific incoming data rate"
attr unit bps
vector 98 BluetoothNetwork.slave1.wlan[0].mac.dcf.channelAccess.pendingQueue flowOutgoingDataRate:vector ETV
attr interpolationmode linear
attr recordingmode vector
attr source throughput(flowPacketLength(demuxFlow(packetPulled)))
attr title "flow specific outgoing data rate"
attr unit bps
vector 99 BluetoothNetwork.slave1.wlan[0].mac.dcf.channelAccess.inProgressFrames queueingTime:vector ETV
attr interpolationmode none
attr recordingmode vector
attr source queueingTime(packetDequeued)
attr title "queueing times"
vector 100 BluetoothNetwork.slave1.wlan[0].mac.dcf.channelAccess.inProgressFrames queueLength:vector ETV
attr autoWarmupFilter false
attr interpolationmode sample-hold
attr recordingmode vector
attr source "warmup(count(packetEnqueued) - count(packetDequeued))"
attr title "queue length"
vector 101 BluetoothNetwork.slave1.wlan[0].mac.dcf.channelAccess.contention backoffPeriodGenerated:vector ETV
attr interpolationmode none
attr recordingmode vector
attr title "backoff periods"
vector 102 BluetoothNetwork.slave1.wlan[0].mac.dcf.channelAccess.contention backoffActive:vector ETV
attr autoWarmupFilter false
attr interpolationmode sample-hold
attr recordingmode vector
attr source warmup(count(backoffStarted)-count(backoffStopped))
attr title "backoff active"
vector 103 BluetoothNetwork.slave1.wlan[0].mac.dcf.channelAccess.contention stateChanged:vector ETV
attr enum IDLE,DEFER,IFS_AND_BACKOFF
attr interpolationmode none
attr recordingmode vector
attr title "contention state changed"
attr type enum
vector 104 BluetoothNetwork.slave1.wlan[0].mac.dcf.recipientMacDataService packetDropDuplicateDetected:vector(packetBytes) ETV
attr interpolationmode none
attr recordingmode vector(packetBytes)
attr source packetDropReasonIsDuplicateDetected(packetDropped)
attr title "packet drops: duplicate detected, packetBytes"
vector 105 BluetoothNetwork.slave1.wlan[0].mac.dcf.recoveryProcedure contentionWindowChanged:vector ETV
attr interpolationmode sample-hold
attr recordingmode vector
attr title "contention window"
vector 106 BluetoothNetwork.slave1.wlan[0].mac.dcf packetSentToPeer:vector(packetBytes) ETV
attr interpolationmode none
attr recordingmode vector(packetBytes)
attr title "packets sent, packetBytes"
vector 107 BluetoothNetwork.slave1.wlan[0].mac.dcf packetSentToPeerUnicast:vector(packetBytes) ETV
attr interpolationmode none
attr recordingmode vector(packetBytes)
attr source ieee80211Unicast(packetSentToPeer)
attr title "packets sent: unicast, packetBytes"
vector 108 BluetoothNetwork.slave1.wlan[0].mac.dcf packetSentToPeerMulticast:vector(packetBytes) ETV
attr interpolationmode none
attr recordingmode vector(packetBytes)
attr source ieee80211Multicast(packetSentToPeer)
attr title "packets sent: multicast, packetBytes"
vector 109 BluetoothNetwork.slave1.wlan[0].mac.dcf packetSentToPeerBroadcast:vector(packetBytes) ETV
attr interpolationmode none
attr recordingmode vector(packetBytes)
attr source ieee80211Broadcast(packetSentToPeer)
attr title "packets sent: broadcast , packetBytes"
vector 110 BluetoothNetwork.slave1.wlan[0].mac.dcf packetSentToPeerWithRetry:vector(packetBytes) ETV
attr interpolationmode none
attr recordingmode vector(packetBytes)
attr source ieee80211Retry(packetSentToPeer)
attr title "packets sent: with retry, packetBytes"
vector 111 BluetoothNetwork.slave1.wlan[0].mac.dcf packetSentToPeerWithoutRetry:vector(packetBytes) ETV
attr interpolationmode none
attr recordingmode vector(packetBytes)
attr source ieee80211NotRetry(packetSentToPeer)
attr title "packets sent: without retry, packetBytes"
vector 112 BluetoothNetwork.slave1.wlan[0].mac.dcf packetReceivedFromPeer:vector(packetBytes) ETV
attr interpolationmode none
attr recordingmode vector(packetBytes)
attr title "packets received, packetBytes"
vector 113 BluetoothNetwork.slave1.wlan[0].mac.dcf packetReceivedFromPeerUnicast:vector(packetBytes) ETV
attr interpolationmode none
attr recordingmode vector(packetBytes)
attr source ieee80211Unicast(packetReceivedFromPeer)
attr title "packets received: unicast, packetBytes"
vector 114 BluetoothNetwork.slave1.wlan[0].mac.dcf packetReceivedFromPeerMulticast:vector(packetBytes) ETV
attr interpolationmode none
attr recordingmode vector(packetBytes)
attr source ieee80211Multicast(packetReceivedFromPeer)
attr title "packets received: multicast, packetBytes"
vector 115 BluetoothNetwork.slave1.wlan[0].mac.dcf packetReceivedFromPeerBroadcast:vector(packetBytes) ETV
attr interpolationmode none
attr recordingmode vector(packetBytes)
attr source ieee80211Broadcast(packetReceivedFromPeer)
attr title "packets received: broadcast, packetBytes"
vector 116 BluetoothNetwork.slave1.wlan[0].mac.dcf packetReceivedFromPeerWithRetry:vector(packetBytes) ETV
attr interpolationmode none
attr recordingmode vector(packetBytes)
attr source ieee80211Retry(packetReceivedFromPeer)
attr title "packets received: with retry, packetBytes"
vector 117 BluetoothNetwork.slave1.wlan[0].mac.dcf packetReceivedFromPeerWithoutRetry:vector(packetBytes) ETV
attr interpolationmode none
attr recordingmode vector(packetBytes)
attr source ieee80211NotRetry(packetReceivedFromPeer)
attr title "packets received: without retry, packetBytes"
vector 118 BluetoothNetwork.slave1.wlan[0].mac.dcf packetDrop:vector(packetBytes) ETV
attr interpolationmode none
attr recordingmode vector(packetBytes)
attr source packetDropped
attr title "packet drops, packetBytes"
vector 119 BluetoothNetwork.slave1.wlan[0].mac.dcf packetDropNotAddressedToUs:vector(packetBytes) ETV
attr interpolationmode none
attr recordingmode vector(packetBytes)
attr source packetDropReasonIsNotAddressedToUs(packetDropped)
attr title "packet drops: not addressed to us, packetBytes"
vector 120 BluetoothNetwork.slave1.wlan[0].mac.dcf packetDropQueueOverflow:vector(packetBytes) ETV
attr interpolationmode none
attr recordingmode vector(packetBytes)
attr source packetDropReasonIsQueueOverflow(packetDropped)
attr title "packet drops: queue overflow, packetBytes"
vector 121 BluetoothNetwork.slave1.wlan[0].mac.dcf packetDropRetryLimitReached:vector(packetBytes) ETV
attr interpolationmode none
attr recordingmode vector(packetBytes)
attr source packetDropReasonIsRetryLimitReached(packetDropped)
attr title "packet drops: retry limit reached, packetBytes"
vector 122 BluetoothNetwork.slave1.wlan[0].mac.dcf frameSequenceActive:vector ETV
attr autoWarmupFilter false
attr interpolationmode sample-hold
attr recordingmode vector
attr source warmup(count(frameSequenceStarted)-count(frameSequenceFinished))
attr title "frame sequence active"
vector 123 BluetoothNetwork.slave1.wlan[0].mac.dcf datarateSelected:vector ETV
attr interpolationmode none
attr recordingmode vector
attr title "datarates selected"
vector 124 BluetoothNetwork.slave1.wlan[0].mac.rx nav:vector ETV
attr interpolationmode linear
attr recordingmode vector
attr source navChanged
attr title "network allocation vector"
vector 125 BluetoothNetwork.slave1.wlan[0].mac packetSentToUpper:vector(packetBytes) ETV
attr interpolationmode none
attr recordingmode vector(packetBytes)
attr title "packets sent to upper layer, packetBytes"
vector 126 BluetoothNetwork.slave1.wlan[0].mac packetSentToLower:vector(packetBytes) ETV
attr interpolationmode none
attr recordingmode vector(packetBytes)
attr title "packets sent to lower layer, packetBytes"
vector 127 BluetoothNetwork.slave1.wlan[0].mac packetReceivedFromUpper:vector(packetBytes) ETV
attr interpolationmode none
attr recordingmode vector(packetBytes)
attr title "packets received from upper layer, packetBytes"
vector 128 BluetoothNetwork.slave1.wlan[0].mac packetReceivedFromLower:vector(packetBytes) ETV
attr interpolationmode none
attr recordingmode vector(packetBytes)
attr title "packets received from lower layer, packetBytes"
vector 129 BluetoothNetwork.slave1.wlan[0].mac packetDrop:vector(packetBytes) ETV
attr interpolationmode none
attr recordingmode vector(packetBytes)
attr source packetDropped
attr title "packet drops, packetBytes"
vector 130 BluetoothNetwork.slave1.wlan[0].mac packetDropIncorrectlyReceived:vector(packetBytes) ETV
attr interpolationmode none
attr recordingmode vector(packetBytes)
attr source packetDropReasonIsIncorrectlyReceived(packetDropped)
attr title "packet drops: incorrectly received, packetBytes"
vector 131 BluetoothNetwork.slave1.wlan[0].mac packetDropNotAddressedToUs:vector(packetBytes) ETV
attr interpolationmode none
attr recordingmode vector(packetBytes)
attr source packetDropReasonIsNotAddressedToUs(packetDropped)
attr title "packet drops: not addressed to us, packetBytes"
vector 132 BluetoothNetwork.slave1.wlan[0].mac packetDropQueueOverflow:vector(packetBytes) ETV
attr interpolationmode none
attr recordingmode vector(packetBytes)
attr source packetDropReasonIsQueueOverflow(packetDropped)
attr title "packet drops: queue overflow, packetBytes"
vector 133 BluetoothNetwork.slave1.wlan[0].mac packetDropRetryLimitReached:vector(packetBytes) ETV
attr interpolationmode none
attr recordingmode vector(packetBytes)
attr source packetDropReasonIsRetryLimitReached(packetDropped)
attr title "packet drops: retry limit reached, packetBytes"
vector 134 BluetoothNetwork.slave1.wlan[0].mac packetDropDuplicateDetected:vector(packetBytes) ETV
attr interpolationmode none
attr recordingmode vector(packetBytes)
attr source packetDropReasonIsDuplicateDetected(packetDropped)
attr title "packet drops: duplicate detected, packetBytes"
vector 135 BluetoothNetwork.slave1.wlan[0].mac packetDropOther:vector(packetBytes) ETV
attr interpolationmode none
attr recordingmode vector(packetBytes)
attr source packetDropReasonIsOther(packetDropped)
attr title "packet drops: other, packetBytes"
vector 136 BluetoothNetwork.slave1.wlan[0].radio radioMode:vector ETV
attr enum OFF,SLEEP,RECEIVER,TRANSMITTER,TRANSCEIVER,SWITCHING
attr interpolationmode sample-hold
attr recordingmode vector
attr source radioModeChanged
attr title "Radio mode"
attr type enum
vector 137 BluetoothNetwork.slave1.wlan[0].radio receptionState:vector ETV
attr enum UNDEFINED,IDLE,BUSY,RECEIVING
attr interpolationmode sample-hold
attr recordingmode vector
attr source receptionStateChanged
attr title "Radio reception state"
attr type enum
vector 138 BluetoothNetwork.slave1.wlan[0].radio transmissionState:vector ETV
attr enum UNDEFINED,IDLE,TRANSMITTING
attr interpolationmode sample-hold
attr recordingmode vector
attr source transmissionStateChanged
attr title "Radio transmission state"
attr type enum
vector 139 BluetoothNetwork.slave1.wlan[0].radio radioChannel:vector ETV
attr interpolationmode sample-hold
attr recordingmode vector
attr source radioChannelChanged
attr title "Radio channel"
vector 140 BluetoothNetwork.slave1.wlan[0] packetDropInterfaceDown:vector(packetBytes) ETV
attr interpolationmode none
attr recordingmode vector(packetBytes)
attr source packetDropReasonIsInterfaceDown(packetDropped)
attr title "packet drops: interface down, packetBytes"
vector 141 BluetoothNetwork.slave1.wlan[0] packetDropNoCarrier:vector(packetBytes) ETV
attr interpolationmode none
attr recordingmode vector(packetBytes)
attr source packetDropReasonIsNoCarrier(packetDropped)
attr title "packet drops: no carrier, packetBytes"
vector 142 BluetoothNetwork.slave1.ipv4.ip packetDropAddressResolutionFailed:vector(packetBytes) ETV
attr interpolationmode none
attr recordingmode vector(packetBytes)
attr source packetDropReasonIsAddressResolutionFailed(packetDropped)
attr title "packet drop: address resolution failed, packetBytes"
vector 143 BluetoothNetwork.slave1.ipv4.ip packetDropHopLimitReached:vector(packetBytes) ETV
attr interpolationmode none
attr recordingmode vector(packetBytes)
attr source packetDropReasonIsHopLimitReached(packetDropped)
attr title "packet drop: hop limit reached, packetBytes"
vector 144 BluetoothNetwork.slave1.ipv4.ip packetDropForwardingDisabled:vector(packetBytes) ETV
attr interpolationmode none
attr recordingmode vector(packetBytes)
attr source packetDropReasonIsForwardingDisabled(packetDropped)
attr title "packet drop: forwarding disabled, packetBytes"
vector 145 BluetoothNetwork.slave1.ipv4.ip packetDropLifetimeExpired:vector(packetBytes) ETV
attr interpolationmode none
attr recordingmode vector(packetBytes)
attr source packetDropReasonIsLifetimeExpired(packetDropped)
attr title "packet drop: lifetime expired, packetBytes"
vector 146 BluetoothNetwork.slave1.ipv4.ip packetDropNoInterfaceFound:vector(packetBytes) ETV
attr interpolationmode none
attr recordingmode vector(packetBytes)
attr source packetDropReasonIsNoInterfaceFound(packetDropped)
attr title "packet drop: no interface found, packetBytes"
vector 147 BluetoothNetwork.slave1.ipv4.ip packetDropNoRouteFound:vector(packetBytes) ETV
attr interpolationmode none
attr recordingmode vector(packetBytes)
attr source packetDropReasonIsNoRouteFound(packetDropped)
attr title "packet drop: no route found, packetBytes"
vector 148 BluetoothNetwork.slave1.ipv4.ip packetDropUndefined:vector(packetBytes) ETV
attr interpolationmode none
attr recordingmode vector(packetBytes)
attr source packetDropReasonIsUndefined(packetDropped)
attr title "packet drop: undefined, packetBytes"
vector 149 BluetoothNetwork.slave1.ipv4.arp arpRequestSent:vector(packetBytes) ETV
attr recordingmode vector(packetBytes)
attr source arpRequestSent
attr title "ARP request sent, packetBytes"
vector 150 BluetoothNetwork.slave1.ipv4.arp arpReplySent:vector(packetBytes) ETV
attr recordingmode vector(packetBytes)
attr source arpReplySent
attr title "ARP replies sent, packetBytes"
vector 151 BluetoothNetwork.slave1.udp packetSent:vector(packetBytes) ETV
attr interpolationmode none
attr recordingmode vector(packetBytes)
attr source packetSent
attr title "packets sent, packetBytes"
vector 152 BluetoothNetwork.slave1.udp outgoingDataRate:vector ETV
attr interpolationmode linear
attr recordingmode vector
attr source throughput(packetSent)
attr title "outgoing datarate"
attr unit bps
vector 153 BluetoothNetwork.slave1.udp packetReceived:vector(packetBytes) ETV
attr interpolationmode none
attr recordingmode vector(packetBytes)
attr source packetReceived
attr title "packets received, packetBytes"
vector 154 BluetoothNetwork.slave1.udp passedUpPk:vector(count) ETV
attr interpolationmode none
attr recordingmode vector(count)
attr source packetSentToUpper
attr title "packets passed up, count"
vector 155 BluetoothNetwork.slave1.udp droppedPkWrongPort:vector(count) ETV
attr interpolationmode none
attr recordingmode vector(count)
attr source packetDropReasonIsNoPortFound(packetDropped)
attr title "packets dropped (wrong port), count"
vector 156 BluetoothNetwork.slave1.udp droppedPkBadChecksum:vector(count) ETV
attr interpolationmode none
attr recordingmode vector(count)
attr source packetDropReasonIsIncorrectlyReceived(packetDropped)
attr title "packets dropped (checksum error), count"
vector 157 BluetoothNetwork.slave1.app[0] packetReceived:vector(packetBytes) ETV
attr interpolationmode none
attr recordingmode vector(packetBytes)
attr source packetReceived
attr title "packets received, packetBytes"
vector 158 BluetoothNetwork.slave1.app[0] throughput:vector ETV
attr recordingmode vector
attr source throughput(packetReceived)
attr title throughput
attr unit bps
vector 159 BluetoothNetwork.slave1.app[0] endToEndDelay:vector ETV
attr interpolationmode none
attr recordingmode vector
attr source dataAge(packetReceived)
attr title "end-to-end delay"
attr unit s
vector 160 BluetoothNetwork.slave1.app[0] rcvdPkSeqNo:vector ETV
attr interpolationmode none
attr recordingmode vector
attr source appPkSeqNo(packetReceived)
attr title "received packet sequence number"
vector 161 BluetoothNetwork.slave2.lo[0].lo rcvdPkFromHl:vector(packetBytes) ETV
attr interpolationmode none
attr recordingmode vector(packetBytes)
attr source packetReceivedFromUpper
attr title "packets received from higher layer, packetBytes"
vector 162 BluetoothNetwork.slave2.lo[0].lo passedUpPk:vector(packetBytes) ETV
attr interpolationmode none
attr recordingmode vector(packetBytes)
attr source packetSentToUpper
attr title "packets passed to higher layer, packetBytes"
vector 163 BluetoothNetwork.slave2.lo[0] packetDropInterfaceDown:vector(packetBytes) ETV
attr interpolationmode none
attr recordingmode vector(packetBytes)
attr source packetDropReasonIsInterfaceDown(packetDropped)
attr title "packet drops: interface down, packetBytes"
vector 164 BluetoothNetwork.slave2.lo[0] packetDropNoCarrier:vector(packetBytes) ETV
attr interpolationmode none
attr recordingmode vector(packetBytes)
attr source packetDropReasonIsNoCarrier(packetDropped)
attr title "packet drops: no carrier, packetBytes"
vector 165 BluetoothNetwork.slave2.wlan[0].agent sentRequest:vector ETV
attr recordingmode vector
attr title "sent requests"
vector 166 BluetoothNetwork.slave2.wlan[0].agent acceptConfirm:vector ETV
attr recordingmode vector
attr title "accepted confirms"
vector 167 BluetoothNetwork.slave2.wlan[0].agent dropConfirm:vector ETV
attr recordingmode vector
attr title "dropped confirms"
vector 168 BluetoothNetwork.slave2.wlan[0].mac.dcf.channelAccess.pendingQueue queueLength:vector ETV
attr autoWarmupFilter false
attr interpolationmode sample-hold
attr recordingmode vector
attr source "warmup(atomic(constant0(packetPushEnded) + count(packetPushStarted) - count(packetPulled) - count(packetRemoved) - count(packetDropped)))"
attr title "queue length"
attr unit pk
vector 169 BluetoothNetwork.slave2.wlan[0].mac.dcf.channelAccess.pendingQueue queueBitLength:vector ETV
attr autoWarmupFilter false
attr interpolationmode sample-hold
attr recordingmode vector
attr source "warmup(atomic(constant0(packetPushEnded) + sum(packetLength(packetPushStarted)) - sum(packetLength(packetPulled)) - sum(packetLength(packetRemoved)) - sum(packetLength(packetDropped))))"
attr title "queue bit length"
attr unit b
vector 170 BluetoothNetwork.slave2.wlan[0].mac.dcf.channelAccess.pendingQueue queueingTime:vector ETV
attr interpolationmode none
attr recordingmode vector
attr source queueingTime(packetPulled)
attr title "queueing times"
attr unit s
vector 171 BluetoothNetwork.slave2.wlan[0].mac.dcf.channelAccess.pendingQueue incomingPacketLengths:vector ETV
attr interpolationmode none
attr recordingmode vector
attr source packetLength(packetPushStarted)
attr title "incoming packet lengths"
attr unit b
vector 172 BluetoothNetwork.slave2.wlan[0].mac.dcf.channelAccess.pendingQueue incomingDataRate:vector ETV
attr interpolationmode linear
attr recordingmode vector
attr source throughput(packetPushStarted)
attr title "incoming datarate"
attr unit bps
vector 173 BluetoothNetwork.slave2.wlan[0].mac.dcf.channelAccess.pendingQueue outgoingPacketLengths:vector ETV
attr interpolationmode none
attr recordingmode vector
attr source packetLength(packetPulled)
attr title "outgoing packet lengths"
attr unit b
vector 174 BluetoothNetwork.slave2.wlan[0].mac.dcf.channelAccess.pendingQueue outgoingDataRate:vector ETV
attr interpolationmode linear
attr recordingmode vector
attr source throughput(packetPulled)
attr title "outgoing datarate"
attr unit bps
vector 175 BluetoothNetwork.slave2.wlan[0].mac.dcf.channelAccess.pendingQueue droppedPacketLengthsQueueOverflow:vector ETV
attr interpolationmode none
attr recordingmode vector
attr source packetLength(packetDropReasonIsQueueOverflow(packetDropped))
attr title "dropped packet lengths: queue overflow"
attr unit b
vector 176 BluetoothNetwork.slave2.wlan[0].mac.dcf.channelAccess.pendingQueue flowQueueingTime:vector ETV
attr interpolationmode none
attr recordingmode vector
attr source queueingTime(demuxFlow(packetPulled))
attr title "flow queueing times"
attr unit s
vector 177 BluetoothNetwork.slave2.wlan[0].mac.dcf.channelAccess.pendingQueue flowIncomingDataRate:vector ETV
attr interpolationmode linear
attr recordingmode vector
attr source throughput(flowPacketLength(demuxFlow(packetPushStarted)))
attr title "flow specific incoming data rate"
attr unit bps
vector 178 BluetoothNetwork.slave2.wlan[0].mac.dcf.channelAccess.pendingQueue flowOutgoingDataRate:vector ETV
attr interpolationmode linear
attr recordingmode vector
attr source throughput(flowPacketLength(demuxFlow(packetPulled)))
attr title "flow specific outgoing data rate"
attr unit bps
vector 179 BluetoothNetwork.slave2.wlan[0].mac.dcf.channelAccess.inProgressFrames queueingTime:vector ETV
attr interpolationmode none
attr recordingmode vector
attr source queueingTime(packetDequeued)
attr title "queueing times"
vector 180 BluetoothNetwork.slave2.wlan[0].mac.dcf.channelAccess.inProgressFrames queueLength:vector ETV
attr autoWarmupFilter false
attr interpolationmode sample-hold
attr recordingmode vector
attr source "warmup(count(packetEnqueued) - count(packetDequeued))"
attr title "queue length"
vector 181 BluetoothNetwork.slave2.wlan[0].mac.dcf.channelAccess.contention backoffPeriodGenerated:vector ETV
attr interpolationmode none
attr recordingmode vector
attr title "backoff periods"
vector 182 BluetoothNetwork.slave2.wlan[0].mac.dcf.channelAccess.contention backoffActive:vector ETV
attr autoWarmupFilter false
attr interpolationmode sample-hold
attr recordingmode vector
attr source warmup(count(backoffStarted)-count(backoffStopped))
attr title "backoff active"
vector 183 BluetoothNetwork.slave2.wlan[0].mac.dcf.channelAccess.contention stateChanged:vector ETV
attr enum IDLE,DEFER,IFS_AND_BACKOFF
attr interpolationmode none
attr recordingmode vector
attr title "contention state changed"
attr type enum
vector 184 BluetoothNetwork.slave2.wlan[0].mac.dcf.recipientMacDataService packetDropDuplicateDetected:vector(packetBytes) ETV
attr interpolationmode none
attr recordingmode vector(packetBytes)
attr source packetDropReasonIsDuplicateDetected(packetDropped)
attr title "packet drops: duplicate detected, packetBytes"
vector 185 BluetoothNetwork.slave2.wlan[0].mac.dcf.recoveryProcedure contentionWindowChanged:vector ETV
attr interpolationmode sample-hold
attr recordingmode vector
attr title "contention window"
vector 186 BluetoothNetwork.slave2.wlan[0].mac.dcf packetSentToPeer:vector(packetBytes) ETV
attr interpolationmode none
attr recordingmode vector(packetBytes)
attr title "packets sent, packetBytes"
vector 187 BluetoothNetwork.slave2.wlan[0].mac.dcf packetSentToPeerUnicast:vector(packetBytes) ETV
attr interpolationmode none
attr recordingmode vector(packetBytes)
attr source ieee80211Unicast(packetSentToPeer)
attr title "packets sent: unicast, packetBytes"
vector 188 BluetoothNetwork.slave2.wlan[0].mac.dcf packetSentToPeerMulticast:vector(packetBytes) ETV
attr interpolationmode none
attr recordingmode vector(packetBytes)
attr source ieee80211Multicast(packetSentToPeer)
attr title "packets sent: multicast, packetBytes"
vector 189 BluetoothNetwork.slave2.wlan[0].mac.dcf packetSentToPeerBroadcast:vector(packetBytes) ETV
attr interpolationmode none
attr recordingmode vector(packetBytes)
attr source ieee80211Broadcast(packetSentToPeer)
attr title "packets sent: broadcast , packetBytes"
vector 190 BluetoothNetwork.slave2.wlan[0].mac.dcf packetSentToPeerWithRetry:vector(packetBytes) ETV
attr interpolationmode none
attr recordingmode vector(packetBytes)
attr source ieee80211Retry(packetSentToPeer)
attr title "packets sent: with retry, packetBytes"
vector 191 BluetoothNetwork.slave2.wlan[0].mac.dcf packetSentToPeerWithoutRetry:vector(packetBytes) ETV
attr interpolationmode none
attr recordingmode vector(packetBytes)
attr source ieee80211NotRetry(packetSentToPeer)
attr title "packets sent: without retry, packetBytes"
vector 192 BluetoothNetwork.slave2.wlan[0].mac.dcf packetReceivedFromPeer:vector(packetBytes) ETV
attr interpolationmode none
attr recordingmode vector(packetBytes)
attr title "packets received, packetBytes"
vector 193 BluetoothNetwork.slave2.wlan[0].mac.dcf packetReceivedFromPeerUnicast:vector(packetBytes) ETV
attr interpolationmode none
attr recordingmode vector(packetBytes)
attr source ieee80211Unicast(packetReceivedFromPeer)
attr title "packets received: unicast, packetBytes"
vector 194 BluetoothNetwork.slave2.wlan[0].mac.dcf packetReceivedFromPeerMulticast:vector(packetBytes) ETV
attr interpolationmode none
attr recordingmode vector(packetBytes)
attr source ieee80211Multicast(packetReceivedFromPeer)
attr title "packets received: multicast, packetBytes"
vector 195 BluetoothNetwork.slave2.wlan[0].mac.dcf packetReceivedFromPeerBroadcast:vector(packetBytes) ETV
attr interpolationmode none
attr recordingmode vector(packetBytes)
attr source ieee80211Broadcast(packetReceivedFromPeer)
attr title "packets received: broadcast, packetBytes"
vector 196 BluetoothNetwork.slave2.wlan[0].mac.dcf packetReceivedFromPeerWithRetry:vector(packetBytes) ETV
attr interpolationmode none
attr recordingmode vector(packetBytes)
attr source ieee80211Retry(packetReceivedFromPeer)
attr title "packets received: with retry, packetBytes"
vector 197 BluetoothNetwork.slave2.wlan[0].mac.dcf packetReceivedFromPeerWithoutRetry:vector(packetBytes) ETV
attr interpolationmode none
attr recordingmode vector(packetBytes)
attr source ieee80211NotRetry(packetReceivedFromPeer)
attr title "packets received: without retry, packetBytes"
vector 198 BluetoothNetwork.slave2.wlan[0].mac.dcf packetDrop:vector(packetBytes) ETV
attr interpolationmode none
attr recordingmode vector(packetBytes)
attr source packetDropped
attr title "packet drops, packetBytes"
vector 199 BluetoothNetwork.slave2.wlan[0].mac.dcf packetDropNotAddressedToUs:vector(packetBytes) ETV
attr interpolationmode none
attr recordingmode vector(packetBytes)
attr source packetDropReasonIsNotAddressedToUs(packetDropped)
attr title "packet drops: not addressed to us, packetBytes"
vector 200 BluetoothNetwork.slave2.wlan[0].mac.dcf packetDropQueueOverflow:vector(packetBytes) ETV
attr interpolationmode none
attr recordingmode vector(packetBytes)
attr source packetDropReasonIsQueueOverflow(packetDropped)
attr title "packet drops: queue overflow, packetBytes"
vector 201 BluetoothNetwork.slave2.wlan[0].mac.dcf packetDropRetryLimitReached:vector(packetBytes) ETV
attr interpolationmode none
attr recordingmode vector(packetBytes)
attr source packetDropReasonIsRetryLimitReached(packetDropped)
attr title "packet drops: retry limit reached, packetBytes"
vector 202 BluetoothNetwork.slave2.wlan[0].mac.dcf frameSequenceActive:vector ETV
attr autoWarmupFilter false
attr interpolationmode sample-hold
attr recordingmode vector
attr source warmup(count(frameSequenceStarted)-count(frameSequenceFinished))
attr title "frame sequence active"
vector 203 BluetoothNetwork.slave2.wlan[0].mac.dcf datarateSelected:vector ETV
attr interpolationmode none
attr recordingmode vector
attr title "datarates selected"
vector 204 BluetoothNetwork.slave2.wlan[0].mac.rx nav:vector ETV
attr interpolationmode linear
attr recordingmode vector
attr source navChanged
attr title "network allocation vector"
vector 205 BluetoothNetwork.slave2.wlan[0].mac packetSentToUpper:vector(packetBytes) ETV
attr interpolationmode none
attr recordingmode vector(packetBytes)
attr title "packets sent to upper layer, packetBytes"
vector 206 BluetoothNetwork.slave2.wlan[0].mac packetSentToLower:vector(packetBytes) ETV
attr interpolationmode none
attr recordingmode vector(packetBytes)
attr title "packets sent to lower layer, packetBytes"
vector 207 BluetoothNetwork.slave2.wlan[0].mac packetReceivedFromUpper:vector(packetBytes) ETV
attr interpolationmode none
attr recordingmode vector(packetBytes)
attr title "packets received from upper layer, packetBytes"
vector 208 BluetoothNetwork.slave2.wlan[0].mac packetReceivedFromLower:vector(packetBytes) ETV
attr interpolationmode none
attr recordingmode vector(packetBytes)
attr title "packets received from lower layer, packetBytes"
vector 209 BluetoothNetwork.slave2.wlan[0].mac packetDrop:vector(packetBytes) ETV
attr interpolationmode none
attr recordingmode vector(packetBytes)
attr source packetDropped
attr title "packet drops, packetBytes"
vector 210 BluetoothNetwork.slave2.wlan[0].mac packetDropIncorrectlyReceived:vector(packetBytes) ETV
attr interpolationmode none
attr recordingmode vector(packetBytes)
attr source packetDropReasonIsIncorrectlyReceived(packetDropped)
attr title "packet drops: incorrectly received, packetBytes"
vector 211 BluetoothNetwork.slave2.wlan[0].mac packetDropNotAddressedToUs:vector(packetBytes) ETV
attr interpolationmode none
attr recordingmode vector(packetBytes)
attr source packetDropReasonIsNotAddressedToUs(packetDropped)
attr title "packet drops: not addressed to us, packetBytes"
vector 212 BluetoothNetwork.slave2.wlan[0].mac packetDropQueueOverflow:vector(packetBytes) ETV
attr interpolationmode none
attr recordingmode vector(packetBytes)
attr source packetDropReasonIsQueueOverflow(packetDropped)
attr title "packet drops: queue overflow, packetBytes"
vector 213 BluetoothNetwork.slave2.wlan[0].mac packetDropRetryLimitReached:vector(packetBytes) ETV
attr interpolationmode none
attr recordingmode vector(packetBytes)
attr source packetDropReasonIsRetryLimitReached(packetDropped)
attr title "packet drops: retry limit reached, packetBytes"
vector 214 BluetoothNetwork.slave2.wlan[0].mac packetDropDuplicateDetected:vector(packetBytes) ETV
attr interpolationmode none
attr recordingmode vector(packetBytes)
attr source packetDropReasonIsDuplicateDetected(packetDropped)
attr title "packet drops: duplicate detected, packetBytes"
vector 215 BluetoothNetwork.slave2.wlan[0].mac packetDropOther:vector(packetBytes) ETV
attr interpolationmode none
attr recordingmode vector(packetBytes)
attr source packetDropReasonIsOther(packetDropped)
attr title "packet drops: other, packetBytes"
vector 216 BluetoothNetwork.slave2.wlan[0].radio radioMode:vector ETV
attr enum OFF,SLEEP,RECEIVER,TRANSMITTER,TRANSCEIVER,SWITCHING
attr interpolationmode sample-hold
attr recordingmode vector
attr source radioModeChanged
attr title "Radio mode"
attr type enum
vector 217 BluetoothNetwork.slave2.wlan[0].radio receptionState:vector ETV
attr enum UNDEFINED,IDLE,BUSY,RECEIVING
attr interpolationmode sample-hold
attr recordingmode vector
attr source receptionStateChanged
attr title "Radio reception state"
attr type enum
vector 218 BluetoothNetwork.slave2.wlan[0].radio transmissionState:vector ETV
attr enum UNDEFINED,IDLE,TRANSMITTING
attr interpolationmode sample-hold
attr recordingmode vector
attr source transmissionStateChanged
attr title "Radio transmission state"
attr type enum
vector 219 BluetoothNetwork.slave2.wlan[0].radio radioChannel:vector ETV
attr interpolationmode sample-hold
attr recordingmode vector
attr source radioChannelChanged
attr title "Radio channel"
vector 220 BluetoothNetwork.slave2.wlan[0] packetDropInterfaceDown:vector(packetBytes) ETV
attr interpolationmode none
attr recordingmode vector(packetBytes)
attr source packetDropReasonIsInterfaceDown(packetDropped)
attr title "packet drops: interface down, packetBytes"
vector 221 BluetoothNetwork.slave2.wlan[0] packetDropNoCarrier:vector(packetBytes) ETV
attr interpolationmode none
attr recordingmode vector(packetBytes)
attr source packetDropReasonIsNoCarrier(packetDropped)
attr title "packet drops: no carrier, packetBytes"
vector 222 BluetoothNetwork.slave2.ipv4.ip packetDropAddressResolutionFailed:vector(packetBytes) ETV
attr interpolationmode none
attr recordingmode vector(packetBytes)
attr source packetDropReasonIsAddressResolutionFailed(packetDropped)
attr title "packet drop: address resolution failed, packetBytes"
vector 223 BluetoothNetwork.slave2.ipv4.ip packetDropHopLimitReached:vector(packetBytes) ETV
attr interpolationmode none
attr recordingmode vector(packetBytes)
attr source packetDropReasonIsHopLimitReached(packetDropped)
attr title "packet drop: hop limit reached, packetBytes"
vector 224 BluetoothNetwork.slave2.ipv4.ip packetDropForwardingDisabled:vector(packetBytes) ETV
attr interpolationmode none
attr recordingmode vector(packetBytes)
attr source packetDropReasonIsForwardingDisabled(packetDropped)
attr title "packet drop: forwarding disabled, packetBytes"
vector 225 BluetoothNetwork.slave2.ipv4.ip packetDropLifetimeExpired:vector(packetBytes) ETV
attr interpolationmode none
attr recordingmode vector(packetBytes)
attr source packetDropReasonIsLifetimeExpired(packetDropped)
attr title "packet drop: lifetime expired, packetBytes"
vector 226 BluetoothNetwork.slave2.ipv4.ip packetDropNoInterfaceFound:vector(packetBytes) ETV
attr interpolationmode none
attr recordingmode vector(packetBytes)
attr source packetDropReasonIsNoInterfaceFound(packetDropped)
attr title "packet drop: no interface found, packetBytes"
vector 227 BluetoothNetwork.slave2.ipv4.ip packetDropNoRouteFound:vector(packetBytes) ETV
attr interpolationmode none
attr recordingmode vector(packetBytes)
attr source packetDropReasonIsNoRouteFound(packetDropped)
attr title "packet drop: no route found, packetBytes"
vector 228 BluetoothNetwork.slave2.ipv4.ip packetDropUndefined:vector(packetBytes) ETV
attr interpolationmode none
attr recordingmode vector(packetBytes)
attr source packetDropReasonIsUndefined(packetDropped)
attr title "packet drop: undefined, packetBytes"
vector 229 BluetoothNetwork.slave2.ipv4.arp arpRequestSent:vector(packetBytes) ETV
attr recordingmode vector(packetBytes)
attr source arpRequestSent
attr title "ARP request sent, packetBytes"
vector 230 BluetoothNetwork.slave2.ipv4.arp arpReplySent:vector(packetBytes) ETV
attr recordingmode vector(packetBytes)
attr source arpReplySent
attr title "ARP replies sent, packetBytes"
vector 231 BluetoothNetwork.slave2.udp packetSent:vector(packetBytes) ETV
attr interpolationmode none
attr recordingmode vector(packetBytes)
attr source packetSent
attr title "packets sent, packetBytes"
vector 232 BluetoothNetwork.slave2.udp outgoingDataRate:vector ETV
attr interpolationmode linear
attr recordingmode vector
attr source throughput(packetSent)
attr title "outgoing datarate"
attr unit bps
vector 233 BluetoothNetwork.slave2.udp packetReceived:vector(packetBytes) ETV
attr interpolationmode none
attr recordingmode vector(packetBytes)
attr source packetReceived
attr title "packets received, packetBytes"
vector 234 BluetoothNetwork.slave2.udp passedUpPk:vector(count) ETV
attr interpolationmode none
attr recordingmode vector(count)
attr source packetSentToUpper
attr title "packets passed up, count"
vector 235 BluetoothNetwork.slave2.udp droppedPkWrongPort:vector(count) ETV
attr interpolationmode none
attr recordingmode vector(count)
attr source packetDropReasonIsNoPortFound(packetDropped)
attr title "packets dropped (wrong port), count"
vector 236 BluetoothNetwork.slave2.udp droppedPkBadChecksum:vector(count) ETV
attr interpolationmode none
attr recordingmode vector(count)
attr source packetDropReasonIsIncorrectlyReceived(packetDropped)
attr title "packets dropped (checksum error), count"
vector 237 BluetoothNetwork.slave2.app[0] packetReceived:vector(packetBytes) ETV
attr interpolationmode none
attr recordingmode vector(packetBytes)
attr source packetReceived
attr title "packets received, packetBytes"
vector 238 BluetoothNetwork.slave2.app[0] throughput:vector ETV
attr recordingmode vector
attr source throughput(packetReceived)
attr title throughput
attr unit bps
vector 239 BluetoothNetwork.slave2.app[0] endToEndDelay:vector ETV
attr interpolationmode none
attr recordingmode vector
attr source dataAge(packetReceived)
attr title "end-to-end delay"
attr unit s
vector 240 BluetoothNetwork.slave2.app[0] rcvdPkSeqNo:vector ETV
attr interpolationmode none
attr recordingmode vector
attr source appPkSeqNo(packetReceived)
attr title "received packet sequence number"
vector 241 BluetoothNetwork.slave3.lo[0].lo rcvdPkFromHl:vector(packetBytes) ETV
attr interpolationmode none
attr recordingmode vector(packetBytes)
attr source packetReceivedFromUpper
attr title "packets received from higher layer, packetBytes"
vector 242 BluetoothNetwork.slave3.lo[0].lo passedUpPk:vector(packetBytes) ETV
attr interpolationmode none
attr recordingmode vector(packetBytes)
attr source packetSentToUpper
attr title "packets passed to higher layer, packetBytes"
vector 243 BluetoothNetwork.slave3.lo[0] packetDropInterfaceDown:vector(packetBytes) ETV
attr interpolationmode none
attr recordingmode vector(packetBytes)
attr source packetDropReasonIsInterfaceDown(packetDropped)
attr title "packet drops: interface down, packetBytes"
vector 244 BluetoothNetwork.slave3.lo[0] packetDropNoCarrier:vector(packetBytes) ETV
attr interpolationmode none
attr recordingmode vector(packetBytes)
attr source packetDropReasonIsNoCarrier(packetDropped)
attr title "packet drops: no carrier, packetBytes"
vector 245 BluetoothNetwork.slave3.wlan[0].agent sentRequest:vector ETV
attr recordingmode vector
attr title "sent requests"
vector 246 BluetoothNetwork.slave3.wlan[0].agent acceptConfirm:vector ETV
attr recordingmode vector
attr title "accepted confirms"
vector 247 BluetoothNetwork.slave3.wlan[0].agent dropConfirm:vector ETV
attr recordingmode vector
attr title "dropped confirms"
vector 248 BluetoothNetwork.slave3.wlan[0].mac.dcf.channelAccess.pendingQueue queueLength:vector ETV
attr autoWarmupFilter false
attr interpolationmode sample-hold
attr recordingmode vector
attr source "warmup(atomic(constant0(packetPushEnded) + count(packetPushStarted) - count(packetPulled) - count(packetRemoved) - count(packetDropped)))"
attr title "queue length"
attr unit pk
vector 249 BluetoothNetwork.slave3.wlan[0].mac.dcf.channelAccess.pendingQueue queueBitLength:vector ETV
attr autoWarmupFilter false
attr interpolationmode sample-hold
attr recordingmode vector
attr source "warmup(atomic(constant0(packetPushEnded) + sum(packetLength(packetPushStarted)) - sum(packetLength(packetPulled)) - sum(packetLength(packetRemoved)) - sum(packetLength(packetDropped))))"
attr title "queue bit length"
attr unit b
vector 250 BluetoothNetwork.slave3.wlan[0].mac.dcf.channelAccess.pendingQueue queueingTime:vector ETV
attr interpolationmode none
attr recordingmode vector
attr source queueingTime(packetPulled)
attr title "queueing times"
attr unit s
vector 251 BluetoothNetwork.slave3.wlan[0].mac.dcf.channelAccess.pendingQueue incomingPacketLengths:vector ETV
attr interpolationmode none
attr recordingmode vector
attr source packetLength(packetPushStarted)
attr title "incoming packet lengths"
attr unit b
vector 252 BluetoothNetwork.slave3.wlan[0].mac.dcf.channelAccess.pendingQueue incomingDataRate:vector ETV
attr interpolationmode linear
attr recordingmode vector
attr source throughput(packetPushStarted)
attr title "incoming datarate"
attr unit bps
vector 253 BluetoothNetwork.slave3.wlan[0].mac.dcf.channelAccess.pendingQueue outgoingPacketLengths:vector ETV
attr interpolationmode none
attr recordingmode vector
attr source packetLength(packetPulled)
attr title "outgoing packet lengths"
attr unit b
vector 254 BluetoothNetwork.slave3.wlan[0].mac.dcf.channelAccess.pendingQueue outgoingDataRate:vector ETV
attr interpolationmode linear
attr recordingmode vector
attr source throughput(packetPulled)
attr title "outgoing datarate"
attr unit bps
vector 255 BluetoothNetwork.slave3.wlan[0].mac.dcf.channelAccess.pendingQueue droppedPacketLengthsQueueOverflow:vector ETV
attr interpolationmode none
attr recordingmode vector
attr source packetLength(packetDropReasonIsQueueOverflow(packetDropped))
attr title "dropped packet lengths: queue overflow"
attr unit b
vector 256 BluetoothNetwork.slave3.wlan[0].mac.dcf.channelAccess.pendingQueue flowQueueingTime:vector ETV
attr interpolationmode none
attr recordingmode vector
attr source queueingTime(demuxFlow(packetPulled))
attr title "flow queueing times"
attr unit s
vector 257 BluetoothNetwork.slave3.wlan[0].mac.dcf.channelAccess.pendingQueue flowIncomingDataRate:vector ETV
attr interpolationmode linear
attr recordingmode vector
attr source throughput(flowPacketLength(demuxFlow(packetPushStarted)))
attr title "flow specific incoming data rate"
attr unit bps
vector 258 BluetoothNetwork.slave3.wlan[0].mac.dcf.channelAccess.pendingQueue flowOutgoingDataRate:vector ETV
attr interpolationmode linear
attr recordingmode vector
attr source throughput(flowPacketLength(demuxFlow(packetPulled)))
attr title "flow specific outgoing data rate"
attr unit bps
vector 259 BluetoothNetwork.slave3.wlan[0].mac.dcf.channelAccess.inProgressFrames queueingTime:vector ETV
attr interpolationmode none
attr recordingmode vector
attr source queueingTime(packetDequeued)
attr title "queueing times"
vector 260 BluetoothNetwork.slave3.wlan[0].mac.dcf.channelAccess.inProgressFrames queueLength:vector ETV
attr autoWarmupFilter false
attr interpolationmode sample-hold
attr recordingmode vector
attr source "warmup(count(packetEnqueued) - count(packetDequeued))"
attr title "queue length"
vector 261 BluetoothNetwork.slave3.wlan[0].mac.dcf.channelAccess.contention backoffPeriodGenerated:vector ETV
attr interpolationmode none
attr recordingmode vector
attr title "backoff periods"
vector 262 BluetoothNetwork.slave3.wlan[0].mac.dcf.channelAccess.contention backoffActive:vector ETV
attr autoWarmupFilter false
attr interpolationmode sample-hold
attr recordingmode vector
attr source warmup(count(backoffStarted)-count(backoffStopped))
attr title "backoff active"
vector 263 BluetoothNetwork.slave3.wlan[0].mac.dcf.channelAccess.contention stateChanged:vector ETV
attr enum IDLE,DEFER,IFS_AND_BACKOFF
attr interpolationmode none
attr recordingmode vector
attr title "contention state changed"
attr type enum
vector 264 BluetoothNetwork.slave3.wlan[0].mac.dcf.recipientMacDataService packetDropDuplicateDetected:vector(packetBytes) ETV
attr interpolationmode none
attr recordingmode vector(packetBytes)
attr source packetDropReasonIsDuplicateDetected(packetDropped)
attr title "packet drops: duplicate detected, packetBytes"
vector 265 BluetoothNetwork.slave3.wlan[0].mac.dcf.recoveryProcedure contentionWindowChanged:vector ETV
attr interpolationmode sample-hold
attr recordingmode vector
attr title "contention window"
vector 266 BluetoothNetwork.slave3.wlan[0].mac.dcf packetSentToPeer:vector(packetBytes) ETV
attr interpolationmode none
attr recordingmode vector(packetBytes)
attr title "packets sent, packetBytes"
vector 267 BluetoothNetwork.slave3.wlan[0].mac.dcf packetSentToPeerUnicast:vector(packetBytes) ETV
attr interpolationmode none
attr recordingmode vector(packetBytes)
attr source ieee80211Unicast(packetSentToPeer)
attr title "packets sent: unicast, packetBytes"
vector 268 BluetoothNetwork.slave3.wlan[0].mac.dcf packetSentToPeerMulticast:vector(packetBytes) ETV
attr interpolationmode none
attr recordingmode vector(packetBytes)
attr source ieee80211Multicast(packetSentToPeer)
attr title "packets sent: multicast, packetBytes"
vector 269 BluetoothNetwork.slave3.wlan[0].mac.dcf packetSentToPeerBroadcast:vector(packetBytes) ETV
attr interpolationmode none
attr recordingmode vector(packetBytes)
attr source ieee80211Broadcast(packetSentToPeer)
attr title "packets sent: broadcast , packetBytes"
vector 270 BluetoothNetwork.slave3.wlan[0].mac.dcf packetSentToPeerWithRetry:vector(packetBytes) ETV
attr interpolationmode none
attr recordingmode vector(packetBytes)
attr source ieee80211Retry(packetSentToPeer)
attr title "packets sent: with retry, packetBytes"
vector 271 BluetoothNetwork.slave3.wlan[0].mac.dcf packetSentToPeerWithoutRetry:vector(packetBytes) ETV
attr interpolationmode none
attr recordingmode vector(packetBytes)
attr source ieee80211NotRetry(packetSentToPeer)
attr title "packets sent: without retry, packetBytes"
vector 272 BluetoothNetwork.slave3.wlan[0].mac.dcf packetReceivedFromPeer:vector(packetBytes) ETV
attr interpolationmode none
attr recordingmode vector(packetBytes)
attr title "packets received, packetBytes"
vector 273 BluetoothNetwork.slave3.wlan[0].mac.dcf packetReceivedFromPeerUnicast:vector(packetBytes) ETV
attr interpolationmode none
attr recordingmode vector(packetBytes)
attr source ieee80211Unicast(packetReceivedFromPeer)
attr title "packets received: unicast, packetBytes"
vector 274 BluetoothNetwork.slave3.wlan[0].mac.dcf packetReceivedFromPeerMulticast:vector(packetBytes) ETV
attr interpolationmode none
attr recordingmode vector(packetBytes)
attr source ieee80211Multicast(packetReceivedFromPeer)
attr title "packets received: multicast, packetBytes"
vector 275 BluetoothNetwork.slave3.wlan[0].mac.dcf packetReceivedFromPeerBroadcast:vector(packetBytes) ETV
attr interpolationmode none
attr recordingmode vector(packetBytes)
attr source ieee80211Broadcast(packetReceivedFromPeer)
attr title "packets received: broadcast, packetBytes"
vector 276 BluetoothNetwork.slave3.wlan[0].mac.dcf packetReceivedFromPeerWithRetry:vector(packetBytes) ETV
attr interpolationmode none
attr recordingmode vector(packetBytes)
attr source ieee80211Retry(packetReceivedFromPeer)
attr title "packets received: with retry, packetBytes"
vector 277 BluetoothNetwork.slave3.wlan[0].mac.dcf packetReceivedFromPeerWithoutRetry:vector(packetBytes) ETV
attr interpolationmode none
attr recordingmode vector(packetBytes)
attr source ieee80211NotRetry(packetReceivedFromPeer)
attr title "packets received: without retry, packetBytes"
vector 278 BluetoothNetwork.slave3.wlan[0].mac.dcf packetDrop:vector(packetBytes) ETV
attr interpolationmode none
attr recordingmode vector(packetBytes)
attr source packetDropped
attr title "packet drops, packetBytes"
vector 279 BluetoothNetwork.slave3.wlan[0].mac.dcf packetDropNotAddressedToUs:vector(packetBytes) ETV
attr interpolationmode none
attr recordingmode vector(packetBytes)
attr source packetDropReasonIsNotAddressedToUs(packetDropped)
attr title "packet drops: not addressed to us, packetBytes"
vector 280 BluetoothNetwork.slave3.wlan[0].mac.dcf packetDropQueueOverflow:vector(packetBytes) ETV
attr interpolationmode none
attr recordingmode vector(packetBytes)
attr source packetDropReasonIsQueueOverflow(packetDropped)
attr title "packet drops: queue overflow, packetBytes"
vector 281 BluetoothNetwork.slave3.wlan[0].mac.dcf packetDropRetryLimitReached:vector(packetBytes) ETV
attr interpolationmode none
attr recordingmode vector(packetBytes)
attr source packetDropReasonIsRetryLimitReached(packetDropped)
attr title "packet drops: retry limit reached, packetBytes"
vector 282 BluetoothNetwork.slave3.wlan[0].mac.dcf frameSequenceActive:vector ETV
attr autoWarmupFilter false
attr interpolationmode sample-hold
attr recordingmode vector
attr source warmup(count(frameSequenceStarted)-count(frameSequenceFinished))
attr title "frame sequence active"
vector 283 BluetoothNetwork.slave3.wlan[0].mac.dcf datarateSelected:vector ETV
attr interpolationmode none
attr recordingmode vector
attr title "datarates selected"
vector 284 BluetoothNetwork.slave3.wlan[0].mac.rx nav:vector ETV
attr interpolationmode linear
attr recordingmode vector
attr source navChanged
attr title "network allocation vector"
vector 285 BluetoothNetwork.slave3.wlan[0].mac packetSentToUpper:vector(packetBytes) ETV
attr interpolationmode none
attr recordingmode vector(packetBytes)
attr title "packets sent to upper layer, packetBytes"
vector 286 BluetoothNetwork.slave3.wlan[0].mac packetSentToLower:vector(packetBytes) ETV
attr interpolationmode none
attr recordingmode vector(packetBytes)
attr title "packets sent to lower layer, packetBytes"
vector 287 BluetoothNetwork.slave3.wlan[0].mac packetReceivedFromUpper:vector(packetBytes) ETV
attr interpolationmode none
attr recordingmode vector(packetBytes)
attr title "packets received from upper layer, packetBytes"
vector 288 BluetoothNetwork.slave3.wlan[0].mac packetReceivedFromLower:vector(packetBytes) ETV
attr interpolationmode none
attr recordingmode vector(packetBytes)
attr title "packets received from lower layer, packetBytes"
vector 289 BluetoothNetwork.slave3.wlan[0].mac packetDrop:vector(packetBytes) ETV
attr interpolationmode none
attr recordingmode vector(packetBytes)
attr source packetDropped
attr title "packet drops, packetBytes"
vector 290 BluetoothNetwork.slave3.wlan[0].mac packetDropIncorrectlyReceived:vector(packetBytes) ETV
attr interpolationmode none
attr recordingmode vector(packetBytes)
attr source packetDropReasonIsIncorrectlyReceived(packetDropped)
attr title "packet drops: incorrectly received, packetBytes"
vector 291 BluetoothNetwork.slave3.wlan[0].mac packetDropNotAddressedToUs:vector(packetBytes) ETV
attr interpolationmode none
attr recordingmode vector(packetBytes)
attr source packetDropReasonIsNotAddressedToUs(packetDropped)
attr title "packet drops: not addressed to us, packetBytes"
vector 292 BluetoothNetwork.slave3.wlan[0].mac packetDropQueueOverflow:vector(packetBytes) ETV
attr interpolationmode none
attr recordingmode vector(packetBytes)
attr source packetDropReasonIsQueueOverflow(packetDropped)
attr title "packet drops: queue overflow, packetBytes"
vector 293 BluetoothNetwork.slave3.wlan[0].mac packetDropRetryLimitReached:vector(packetBytes) ETV
attr interpolationmode none
attr recordingmode vector(packetBytes)
attr source packetDropReasonIsRetryLimitReached(packetDropped)
attr title "packet drops: retry limit reached, packetBytes"
vector 294 BluetoothNetwork.slave3.wlan[0].mac packetDropDuplicateDetected:vector(packetBytes) ETV
attr interpolationmode none
attr recordingmode vector(packetBytes)
attr source packetDropReasonIsDuplicateDetected(packetDropped)
attr title "packet drops: duplicate detected, packetBytes"
vector 295 BluetoothNetwork.slave3.wlan[0].mac packetDropOther:vector(packetBytes) ETV
attr interpolationmode none
attr recordingmode vector(packetBytes)
attr source packetDropReasonIsOther(packetDropped)
attr title "packet drops: other, packetBytes"
vector 296 BluetoothNetwork.slave3.wlan[0].radio radioMode:vector ETV
attr enum OFF,SLEEP,RECEIVER,TRANSMITTER,TRANSCEIVER,SWITCHING
attr interpolationmode sample-hold
attr recordingmode vector
attr source radioModeChanged
attr title "Radio mode"
attr type enum
vector 297 BluetoothNetwork.slave3.wlan[0].radio receptionState:vector ETV
attr enum UNDEFINED,IDLE,BUSY,RECEIVING
attr interpolationmode sample-hold
attr recordingmode vector
attr source receptionStateChanged
attr title "Radio reception state"
attr type enum
vector 298 BluetoothNetwork.slave3.wlan[0].radio transmissionState:vector ETV
attr enum UNDEFINED,IDLE,TRANSMITTING
attr interpolationmode sample-hold
attr recordingmode vector
attr source transmissionStateChanged
attr title "Radio transmission state"
attr type enum
vector 299 BluetoothNetwork.slave3.wlan[0].radio radioChannel:vector ETV
attr interpolationmode sample-hold
attr recordingmode vector
attr source radioChannelChanged
attr title "Radio channel"
vector 300 BluetoothNetwork.slave3.wlan[0] packetDropInterfaceDown:vector(packetBytes) ETV
attr interpolationmode none
attr recordingmode vector(packetBytes)
attr source packetDropReasonIsInterfaceDown(packetDropped)
attr title "packet drops: interface down, packetBytes"
vector 301 BluetoothNetwork.slave3.wlan[0] packetDropNoCarrier:vector(packetBytes) ETV
attr interpolationmode none
attr recordingmode vector(packetBytes)
attr source packetDropReasonIsNoCarrier(packetDropped)
attr title "packet drops: no carrier, packetBytes"
[...]
attr recordingmode vector
attr source radioChannelChanged
attr title "Radio channel"
vector 456 BluetoothNetwork.attacker2.wlan[0] packetDropInterfaceDown:vector(packetBytes) ETV
attr interpolationmode none
attr recordingmode vector(packetBytes)
attr source packetDropReasonIsInterfaceDown(packetDropped)
attr title "packet drops: interface down, packetBytes"
vector 457 BluetoothNetwork.attacker2.wlan[0] packetDropNoCarrier:vector(packetBytes) ETV
attr interpolationmode none
attr recordingmode vector(packetBytes)
attr source packetDropReasonIsNoCarrier(packetDropped)
attr title "packet drops: no carrier, packetBytes"
vector 458 BluetoothNetwork.attacker2.ipv4.ip packetDropAddressResolutionFailed:vector(packetBytes) ETV
attr interpolationmode none
attr recordingmode vector(packetBytes)
attr source packetDropReasonIsAddressResolutionFailed(packetDropped)
attr title "packet drop: address resolution failed, packetBytes"
vector 459 BluetoothNetwork.attacker2.ipv4.ip packetDropHopLimitReached:vector(packetBytes) ETV
attr interpolationmode none
attr recordingmode vector(packetBytes)
attr source packetDropReasonIsHopLimitReached(packetDropped)
attr title "packet drop: hop limit reached, packetBytes"
vector 460 BluetoothNetwork.attacker2.ipv4.ip packetDropForwardingDisabled:vector(packetBytes) ETV
attr interpolationmode none
attr recordingmode vector(packetBytes)
attr source packetDropReasonIsForwardingDisabled(packetDropped)
attr title "packet drop: forwarding disabled, packetBytes"
vector 461 BluetoothNetwork.attacker2.ipv4.ip packetDropLifetimeExpired:vector(packetBytes) ETV
attr interpolationmode none
attr recordingmode vector(packetBytes)
attr source packetDropReasonIsLifetimeExpired(packetDropped)
attr title "packet drop: lifetime expired, packetBytes"
vector 462 BluetoothNetwork.attacker2.ipv4.ip packetDropNoInterfaceFound:vector(packetBytes) ETV
attr interpolationmode none
attr recordingmode vector(packetBytes)
attr source packetDropReasonIsNoInterfaceFound(packetDropped)
attr title "packet drop: no interface found, packetBytes"
vector 463 BluetoothNetwork.attacker2.ipv4.ip packetDropNoRouteFound:vector(packetBytes) ETV
attr interpolationmode none
attr recordingmode vector(packetBytes)
attr source packetDropReasonIsNoRouteFound(packetDropped)
attr title "packet drop: no route found, packetBytes"
vector 464 BluetoothNetwork.attacker2.ipv4.ip packetDropUndefined:vector(packetBytes) ETV
attr interpolationmode none
attr recordingmode vector(packetBytes)
attr source packetDropReasonIsUndefined(packetDropped)
attr title "packet drop: undefined, packetBytes"
vector 465 BluetoothNetwork.attacker2.ipv4.arp arpRequestSent:vector(packetBytes) ETV
attr recordingmode vector(packetBytes)
attr source arpRequestSent
attr title "ARP request sent, packetBytes"
vector 466 BluetoothNetwork.attacker2.ipv4.arp arpReplySent:vector(packetBytes) ETV
attr recordingmode vector(packetBytes)
attr source arpReplySent
attr title "ARP replies sent, packetBytes"
vector 467 BluetoothNetwork.attacker2.udp packetSent:vector(packetBytes) ETV
attr interpolationmode none
attr recordingmode vector(packetBytes)
attr source packetSent
attr title "packets sent, packetBytes"
vector 468 BluetoothNetwork.attacker2.udp outgoingDataRate:vector ETV
attr interpolationmode linear
attr recordingmode vector
attr source throughput(packetSent)
attr title "outgoing datarate"
attr unit bps
vector 469 BluetoothNetwork.attacker2.udp packetReceived:vector(packetBytes) ETV
attr interpolationmode none
attr recordingmode vector(packetBytes)
attr source packetReceived
attr title "packets received, packetBytes"
vector 470 BluetoothNetwork.attacker2.udp passedUpPk:vector(count) ETV
attr interpolationmode none
attr recordingmode vector(count)
attr source packetSentToUpper
attr title "packets passed up, count"
vector 471 BluetoothNetwork.attacker2.udp droppedPkWrongPort:vector(count) ETV
attr interpolationmode none
attr recordingmode vector(count)
attr source packetDropReasonIsNoPortFound(packetDropped)
attr title "packets dropped (wrong port), count"
vector 472 BluetoothNetwork.attacker2.udp droppedPkBadChecksum:vector(count) ETV
attr interpolationmode none
attr recordingmode vector(count)
attr source packetDropReasonIsIncorrectlyReceived(packetDropped)
attr title "packets dropped (checksum error), count"
4	123892 170 49 1684 0.163464953215 2.563464953215 7 1 1 7 7
6	124062 147 316 1684 0.563464953215 2.563464953215 6 1 1 6 6
7	124209 387 0 1779 0 2.663464953215 19 0 1 7 7
8	124596 401 0 1779 0 2.663464953215 19 0 320 2240 716800
9	124997 171 141 1779 0.263464953215 2.663464953215 7 0 0 0 0
10	125168 192 139 1777 0.263464953215 2.663464953215 7 320 320 2240 716800
11	125360 390 139 1777 0.1 2.6 26 0 3200 19200 61440000
12	125750 192 141 1779 0.263464953215 2.663464953215 7 320 320 2240 716800
13	125942 390 141 1779 0.1 2.6 26 0 3200 19200 61440000
18	126332 188 149 1517 0.263506953215 2.263506953215 6 4.2e-05 4.2e-05 0.000252 1.0584e-08
19	126520 350 0 1779 0 2.663464953215 15 0 1 7 7
20	126870 181 139 1777 0.263464953215 2.663464953215 7 2 21 76 1144
21	127051 376 0 1778 0 2.663464953215 16 0 1 7 7
22	127427 4646 0 1780 0 2.663464953215 184 0 2 28 56
24	132073 11 0 0 0 0 1 31 31 31 961
25	132084 158 149 1517 0.263506953215 2.263506953215 6 40 40 240 9600
27	132242 158 149 1517 0.263506953215 2.263506953215 6 40 40 240 9600
28	132400 158 149 1517 0.263506953215 2.263506953215 6 40 40 240 9600
30	132558 158 149 1517 0.263506953215 2.263506953215 6 40 40 240 9600
31	132716 846 87 1750 0.215357484965 2.627139040378 32 40 40 1280 51200
33	133562 846 87 1750 0.215357484965 2.627139040378 32 40 40 1280 51200
34	134408 846 87 1750 0.215357484965 2.627139040378 32 40 40 1280 51200
36	135254 846 87 1750 0.215357484965 2.627139040378 32 40 40 1280 51200
41	136100 350 0 1779 0 2.663464953215 15 0 1 7 7
42	136450 227 141 1779 0.263464953215 2.663464953215 7 24000000 24000000 168000000 4.032e+15
45	136677 185 141 1779 0.263464953215 2.663464953215 7 40 40 280 11200
46	136862 144 15 1408 0.02 2.14 9 36 36 324 11664
47	137006 846 87 1750 0.215357484965 2.627139040378 32 40 40 1280 51200
48	137852 144 15 1408 0.02 2.14 9 36 36 324 11664
54	137996 144 15 1408 0.02 2.14 9 36 36 324 11664
55	138140 360 0 1780 0 2.663464953215 16 0 3 35 91
56	138500 1967 0 1780 0 2.663464953215 78 0 3 135 327
57	140467 660 142 1781 0.263464953215 2.663464953215 26 0 2 27 41
58	141127 187 0 1687 0 2.563464953215 8 0 0 0 0
68	141314 144 13 1404 0.02 2.14 9 28 28 252 7056
70	141458 2279 12 1774 0.02 2.66 133 208 208 27664 5754112
71	143737 474 28 1702 0.1 2.6 26 66560 83200 2146560 177486233600
73	144211 10 0 0 0 0 1 0 0 0 0
74	144221 10 0 0 0 0 1 0 0 0 0
75	144231 10 0 0 0 0 1 0 0 0 0
78	144241 2279 10 1773 0.02 2.66 133 200 200 26600 5320000
85	146520 178 131 1769 0.254175521177 2.654175521177 7 1 1 7 7
87	146698 153 401 1769 0.654175521177 2.654175521177 6 1 1 6 6
88	146851 356 0 1608 0 2.354175521177 17 0 1 6 6
89	147207 368 0 1608 0 2.354175521177 17 0 320 1920 614400
90	147575 153 240 1608 0.354175521177 2.354175521177 6 0 0 0 0
91	147728 165 238 1606 0.354175521177 2.354175521177 6 320 320 1920 614400
92	147893 345 238 1606 0.1 2.3 23 0 3200 16000 51200000
93	148238 165 240 1608 0.354175521177 2.354175521177 6 320 320 1920 614400
94	148403 345 240 1608 0.1 2.3 23 0 3200 16000 51200000
99	148748 189 248 1616 0.354217521177 2.354217521177 6 4.2e-05 4.2e-05 0.000252 1.0584e-08
100	148937 340 0 1616 0 2.354217521177 14 0 1 6 6
101	149277 164 238 1606 0.354175521177 2.354175521177 6 2 20 82 1330
102	149441 340 0 1607 0 2.354175521177 14 0 1 6 6
103	149781 4726 0 1783 0 2.663465554556 180 0 2 24 48
105	154507 12 0 0 0 0 1 31 31 31 961
106	154519 165 248 1616 0.354217521177 2.354217521177 6 40 40 240 9600
108	154684 165 248 1616 0.354217521177 2.354217521177 6 40 40 240 9600
109	154849 165 248 1616 0.354217521177 2.354217521177 6 40 40 240 9600
111	155014 165 248 1616 0.354217521177 2.354217521177 6 40 40 240 9600
112	155179 877 90 1759 0.215358085886 2.627139439729 32 40 40 1280 51200
114	156056 877 90 1759 0.215358085886 2.627139439729 32 40 40 1280 51200
115	156933 877 90 1759 0.215358085886 2.627139439729 32 40 40 1280 51200
117	157810 877 90 1759 0.215358085886 2.627139439729 32 40 40 1280 51200
122	158687 340 0 1616 0 2.354217521177 14 0 1 6 6
123	159027 201 240 1608 0.354175521177 2.354175521177 6 24000000 24000000 144000000 3.456e+15
126	159228 165 240 1608 0.354175521177 2.354175521177 6 40 40 240 9600
128	159393 877 90 1759 0.215358085886 2.627139439729 32 40 40 1280 51200
136	160270 351 0 1617 0 2.354217521177 15 0 3 32 82
137	160621 2045 0 1783 0 2.663465554556 78 0 3 138 336
138	162666 636 241 1617 0.354175521177 2.354217521177 24 0 2 24 36
139	163302 196 0 1772 0 2.654175521177 8 0 0 0 0
154	163498 11 0 0 0 0 1 0 0 0 0
155	163509 11 0 0 0 0 1 0 0 0 0
156	163520 11 0 0 0 0 1 0 0 0 0
165	163531 184 37 1673 0.127096439037 2.527096439037 7 1 1 7 7
167	163715 159 305 1673 0.527096439037 2.527096439037 6 1 1 6 6
168	163874 425 0 1739 0 2.627096439037 19 0 1 7 7
169	164299 439 0 1739 0 2.627096439037 19 0 320 2240 716800
170	164738 185 102 1739 0.227096439037 2.627096439037 7 0 0 0 0
171	164923 199 100 1737 0.227096439037 2.627096439037 7 320 320 2240 716800
172	165122 416 100 1737 0.1 2.6 26 0 3200 19200 61440000
173	165538 199 102 1739 0.227096439037 2.627096439037 7 320 320 2240 716800
174	165737 416 102 1739 0.1 2.6 26 0 3200 19200 61440000
179	166153 227 110 1747 0.227138439037 2.627138439037 7 4.2e-05 4.2e-05 0.000294 1.2348e-08
180	166380 392 0 1747 0 2.627138439037 16 0 1 7 7
181	166772 190 100 1737 0.227096439037 2.627096439037 7 2 25 91 1611
182	166962 392 0 1738 0 2.627096439037 16 0 1 7 7
183	167354 4830 0 1784 0 2.663465554556 184 0 2 28 56
185	172184 12 0 0 0 0 1 31 31 31 961
186	172196 192 110 1747 0.227138439037 2.627138439037 7 40 40 280 11200
188	172388 192 110 1747 0.227138439037 2.627138439037 7 40 40 280 11200
189	172580 192 110 1747 0.227138439037 2.627138439037 7 40 40 280 11200
191	172772 192 110 1747 0.227138439037 2.627138439037 7 40 40 280 11200
192	172964 850 84 1721 0.215357410616 2.615357410616 31 40 40 1240 49600
194	173814 850 84 1721 0.215357410616 2.615357410616 31 40 40 1240 49600
195	174664 850 84 1721 0.215357410616 2.615357410616 31 40 40 1240 49600
197	175514 850 84 1721 0.215357410616 2.615357410616 31 40 40 1240 49600
202	176364 392 0 1747 0 2.627138439037 16 0 1 7 7
203	176756 234 102 1739 0.227096439037 2.627096439037 7 24000000 24000000 168000000 4.032e+15
206	176990 192 102 1739 0.227096439037 2.627096439037 7 40 40 280 11200
208	177182 850 84 1721 0.215357410616 2.615357410616 31 40 40 1240 49600
216	178032 403 0 1748 0 2.627138439037 17 0 3 37 95
217	178435 2045 0 1784 0 2.663465554556 78 0 3 135 327
218	180480 740 103 1748 0.227096439037 2.627138439037 28 0 2 28 42
219	181220 195 0 1676 0 2.527096439037 8 0 0 0 0
234	181415 11 0 0 0 0 1 0 0 0 0
235	181426 11 0 0 0 0 1 0 0 0 0
236	181437 11 0 0 0 0 1 0 0 0 0
245	181448 184 56 1692 0.187069108919 2.587069108919 7 1 1 7 7
247	181632 159 324 1692 0.587069108919 2.587069108919 6 1 1 6 6
248	181791 371 0 1541 0 2.287069108919 17 0 1 6 6
249	182162 383 0 1541 0 2.287069108919 17 0 320 1920 614400
250	182545 158 173 1541 0.287069108919 2.287069108919 6 0 0 0 0
251	182703 170 171 1539 0.287069108919 2.287069108919 6 320 320 1920 614400
252	182873 349 171 1539 0.1 2.2 22 0 3200 16000 51200000
253	183222 170 173 1541 0.287069108919 2.287069108919 6 320 320 1920 614400
254	183392 349 173 1541 0.1 2.2 22 0 3200 16000 51200000
259	183741 195 181 1549 0.287111108919 2.287111108919 6 4.2e-05 4.2e-05 0.000252 1.0584e-08
260	183936 339 0 1549 0 2.287111108919 14 0 1 6 6
261	184275 161 171 1539 0.287069108919 2.287069108919 6 1 29 76 1520
262	184436 338 0 1540 0 2.287069108919 14 0 1 6 6
263	184774 4722 0 1782 0 2.663465453561 180 0 2 24 48
265	189496 12 0 0 0 0 1 31 31 31 961
266	189508 165 181 1549 0.287111108919 2.287111108919 6 40 40 240 9600
268	189673 165 181 1549 0.287111108919 2.287111108919 6 40 40 240 9600
269	189838 165 181 1549 0.287111108919 2.287111108919 6 40 40 240 9600
271	190003 165 181 1549 0.287111108919 2.287111108919 6 40 40 240 9600
272	190168 877 81 1756 0.215357346377 2.627139411535 32 40 40 1280 51200
274	191045 877 81 1756 0.215357346377 2.627139411535 32 40 40 1280 51200
275	191922 877 81 1756 0.215357346377 2.627139411535 32 40 40 1280 51200
277	192799 877 81 1756 0.215357346377 2.627139411535 32 40 40 1280 51200
282	193676 339 0 1549 0 2.287111108919 14 0 1 6 6
283	194015 200 173 1541 0.287069108919 2.287069108919 6 24000000 24000000 144000000 3.456e+15
286	194215 164 173 1541 0.287069108919 2.287069108919 6 40 40 240 9600
288	194379 877 81 1756 0.215357346377 2.627139411535 32 40 40 1280 51200
296	195256 350 0 1550 0 2.287111108919 15 0 3 32 82
297	195606 2045 0 1782 0 2.663465453561 78 0 3 138 336
298	197651 634 174 1550 0.287069108919 2.287111108919 24 0 2 24 36
299	198285 195 0 1695 0 2.587069108919 8 0 0 0 0
314	198480 11 0 0 0 0 1 0 0 0 0
315	198491 11 0 0 0 0 1 0 0 0 0
316	198502 11 0 0 0 0 1 0 0 0 0
325	198513 184 60 1697 0.193768234528 2.593768234528 7 1 1 7 7
327	198697 159 329 1697 0.593768234528 2.593768234528 6 1 1 6 6
328	198856 373 0 1569 0 2.293768234528 17 0 1 6 6
329	199229 385 0 1569 0 2.293768234528 17 0 320 1920 614400
330	199614 159 201 1569 0.293768234528 2.293768234528 6 0 0 0 0
331	199773 171 199 1567 0.293768234528 2.293768234528 6 320 320 1920 614400
332	199944 353 199 1567 0.1 2.2 22 0 3200 16000 51200000
333	200297 171 201 1569 0.293768234528 2.293768234528 6 320 320 1920 614400
334	200468 353 201 1569 0.1 2.2 22 0 3200 16000 51200000
339	200821 195 209 1577 0.293810234528 2.293810234528 6 4.2e-05 4.2e-05 0.000252 1.0584e-08
340	201016 340 0 1577 0 2.293810234528 14 0 1 6 6
341	201356 160 199 1567 0.293768234528 2.293768234528 6 3 16 41 397
342	201516 340 0 1568 0 2.293768234528 14 0 1 6 6
343	201856 4726 0 1785 0 2.663465925713 180 0 2 24 48
345	206582 12 0 0 0 0 1 31 31 31 961
346	206594 165 209 1577 0.293810234528 2.293810234528 6 40 40 240 9600
348	206759 165 209 1577 0.293810234528 2.293810234528 6 40 40 240 9600
349	206924 165 209 1577 0.293810234528 2.293810234528 6 40 40 240 9600
351	207089 165 209 1577 0.293810234528 2.293810234528 6 40 40 240 9600
352	207254 877 93 1762 0.215358180287 2.627140012456 32 40 40 1280 51200
354	208131 877 93 1762 0.215358180287 2.627140012456 32 40 40 1280 51200
355	209008 877 93 1762 0.215358180287 2.627140012456 32 40 40 1280 51200
357	209885 877 93 1762 0.215358180287 2.627140012456 32 40 40 1280 51200
362	210762 340 0 1577 0 2.293810234528 14 0 1 6 6
363	211102 201 201 1569 0.293768234528 2.293768234528 6 24000000 24000000 144000000 3.456e+15
366	211303 165 201 1569 0.293768234528 2.293768234528 6 40 40 240 9600
368	211468 877 93 1762 0.215358180287 2.627140012456 32 40 40 1280 51200
376	212345 351 0 1578 0 2.293810234528 15 0 3 32 82
377	212696 2045 0 1785 0 2.663465925713 78 0 3 138 336
378	214741 636 202 1578 0.293768234528 2.293810234528 24 0 2 24 36
379	215377 195 0 1700 0 2.593768234528 8 0 0 0 0
394	215572 11 0 0 0 0 1 0 0 0 0
395	215583 11 0 0 0 0 1 0 0 0 0
396	215594 11 0 0 0 0 1 0 0 0 0
401	215605 184 30 1665 0.115314512467 2.515314512467 7 1 1 7 7
403	215789 159 297 1665 0.515314512467 2.515314512467 6 1 1 6 6
404	215948 423 0 1707 0 2.615314512467 19 0 1 7 7
405	216371 437 0 1707 0 2.615314512467 19 0 320 2240 716800
406	216808 184 70 1707 0.215314512467 2.615314512467 7 0 0 0 0
407	216992 198 68 1705 0.215314512467 2.615314512467 7 320 320 2240 716800
408	217190 414 68 1705 0.1 2.6 26 0 3200 19200 61440000
409	217604 198 70 1707 0.215314512467 2.615314512467 7 320 320 2240 716800
410	217802 414 70 1707 0.1 2.6 26 0 3200 19200 61440000
415	218216 226 78 1715 0.215356512467 2.615356512467 7 4.2e-05 4.2e-05 0.000294 1.2348e-08
416	218442 390 0 1715 0 2.615356512467 16 0 1 7 7
417	218832 190 68 1705 0.215314512467 2.615314512467 7 3 30 122 2620
418	219022 390 0 1706 0 2.615314512467 16 0 1 7 7
419	219412 4826 0 1786 0 2.663465925713 184 0 2 28 56
421	224238 12 0 0 0 0 1 31 31 31 961
422	224250 191 78 1715 0.215356512467 2.615356512467 7 40 40 280 11200
424	224441 191 78 1715 0.215356512467 2.615356512467 7 40 40 280 11200
425	224632 191 78 1715 0.215356512467 2.615356512467 7 40 40 280 11200
427	224823 191 78 1715 0.215356512467 2.615356512467 7 40 40 280 11200
428	225014 851 116 1753 0.227139337186 2.627139337186 31 40 40 1240 49600
430	225865 851 116 1753 0.227139337186 2.627139337186 31 40 40 1240 49600
431	226716 851 116 1753 0.227139337186 2.627139337186 31 40 40 1240 49600
433	227567 851 116 1753 0.227139337186 2.627139337186 31 40 40 1240 49600
438	228418 390 0 1715 0 2.615356512467 16 0 1 7 7
439	228808 233 70 1707 0.215314512467 2.615314512467 7 24000000 24000000 168000000 4.032e+15
442	229041 191 70 1707 0.215314512467 2.615314512467 7 40 40 280 11200
444	229232 851 116 1753 0.227139337186 2.627139337186 31 40 40 1240 49600
452	230083 401 0 1716 0 2.615356512467 17 0 3 37 95
453	230484 2045 0 1786 0 2.663465925713 78 0 3 135 327
454	232529 736 71 1716 0.215314512467 2.615356512467 28 0 2 28 42
455	233265 195 0 1668 0 2.515314512467 8 0 0 0 0
470	233460 11 0 0 0 0 1 0 0 0 0
471	233471 11 0 0 0 0 1 0 0 0 0
472	233482 11 0 0 0 0 1 0 0 0 0
11	233493 40 1786 1786 2.663493674984 2.663493674984 1 5039.8720830167 5039.8720830167 5039.8720830167 25400310.613172
13	233533 40 1786 1786 2.663493674984 2.663493674984 1 5039.8720830167 5039.8720830167 5039.8720830167 25400310.613172
16	233573 412 1786 1786 0.1 2.663493674984 27 0 0 0 0
17	233985 412 1786 1786 0.1 2.663493674984 27 0 0 0 0
71	234397 40 1786 1786 2.663493674984 2.663493674984 1 104829.33932675 104829.33932675 104829.33932675 10989190383.683
77	234437 412 1786 1786 0.1 2.663493674984 27 0 0 0 0
92	234849 74 1786 1786 2.4 2.663493674984 4 0 3200 3200 10240000
94	234923 74 1786 1786 2.4 2.663493674984 4 0 3200 3200 10240000
97	234997 412 1786 1786 0.1 2.663493674984 27 0 0 0 0
98	235409 412 1786 1786 0.1 2.663493674984 27 0 0 0 0
152	235821 439 1786 1786 0.1 2.663493674984 27 0 0 0 0
158	236260 439 1786 1786 0.1 2.663493674984 27 0 0 0 0
172	236699 41 1786 1786 2.663493674984 2.663493674984 1 5039.8720830167 5039.8720830167 5039.8720830167 25400310.613172
174	236740 41 1786 1786 2.663493674984 2.663493674984 1 5039.8720830167 5039.8720830167 5039.8720830167 25400310.613172
177	236781 439 1786 1786 0.1 2.663493674984 27 0 0 0 0
178	237220 439 1786 1786 0.1 2.663493674984 27 0 0 0 0
232	237659 439 1786 1786 0.1 2.663493674984 27 0 0 0 0
238	238098 439 1786 1786 0.1 2.663493674984 27 0 0 0 0
252	238537 94 1786 1786 2.3 2.663493674984 5 0 3200 3200 10240000
254	238631 94 1786 1786 2.3 2.663493674984 5 0 3200 3200 10240000
257	238725 439 1786 1786 0.1 2.663493674984 27 0 0 0 0
258	239164 439 1786 1786 0.1 2.663493674984 27 0 0 0 0
312	239603 439 1786 1786 0.1 2.663493674984 27 0 0 0 0
318	240042 439 1786 1786 0.1 2.663493674984 27 0 0 0 0
332	240481 94 1786 1786 2.3 2.663493674984 5 0 3200 3200 10240000
334	240575 94 1786 1786 2.3 2.663493674984 5 0 3200 3200 10240000
337	240669 439 1786 1786 0.1 2.663493674984 27 0 0 0 0
338	241108 439 1786 1786 0.1 2.663493674984 27 0 0 0 0
392	241547 439 1786 1786 0.1 2.663493674984 27 0 0 0 0
408	241986 41 1786 1786 2.663493674984 2.663493674984 1 5039.8720830167 5039.8720830167 5039.8720830167 25400310.613172
410	242027 41 1786 1786 2.663493674984 2.663493674984 1 5039.8720830167 5039.8720830167 5039.8720830167 25400310.613172
413	242068 439 1786 1786 0.1 2.663493674984 27 0 0 0 0
414	242507 439 1786 1786 0.1 2.663493674984 27 0 0 0 0
468	242946 439 1786 1786 0.1 2.663493674984 27 0 0 0 0

