version 3
run Scenario1_Baseline-0-20260321-23:59:46-19252
attr configname Scenario1_Baseline
attr datetime 20260321-23:59:46
attr datetimef 20260321-235946
attr experiment Scenario1_Baseline
attr inifile omnetpp.ini
attr iterationvars ""
attr iterationvarsd ""
attr iterationvarsf ""
attr measurement ""
attr network BluetoothNetwork
attr processid 19252
attr repetition 0
attr replication #0
attr resultdir results
attr runnumber 0
attr seedset 0
config image-path ../../../Downloads/omnetpp-6.3.0-windows-x86_64/omnetpp-6.3.0/samples/inet4.6/images
config description "Baseline: normal piconet, no attacker active"
config *.attacker1.numApps 0
config *.attacker2.numApps 0
config network BluetoothNetwork
config *.**.wlan[0].radio.receiver.energyDetection -85dBm
config *.**.wlan[0].radio.receiver.sensitivity -85dBm
config sim-time-limit 60s
config **.scalar-recording true
config **.vector-recording true
config *.visualizer.*.displayCommunicationRange true
config *.visualizer.*.displayInterferenceRange true
config *.visualizer.*.displaySignals true
config *.radioMedium.typename RadioMedium
config *.radioMedium.communicationRange 15m
config *.radioMedium.interferenceRange 25m
config *.master.**.wlan[0].typename Ieee80211Interface
config *.master.**.wlan[0].radio.transmitter.power 1mW
config *.master.**.wlan[0].bitrate 2Mbps
config *.slave*.**.wlan[0].typename Ieee80211Interface
config *.slave*.**.wlan[0].radio.transmitter.power 1mW
config *.slave*.**.wlan[0].bitrate 2Mbps
config *.master.mobility.initialX 400m
config *.master.mobility.initialY 300m
config *.slave1.mobility.initialX 250m
config *.slave1.mobility.initialY 200m
config *.slave2.mobility.initialX 550m
config *.slave2.mobility.initialY 200m
config *.slave3.mobility.initialX 400m
config *.slave3.mobility.initialY 450m
config *.attacker1.mobility.initialX 150m
config *.attacker1.mobility.initialY 450m
config *.attacker2.mobility.initialX 650m
config *.attacker2.mobility.initialY 450m
config *.master.mobility.typename StationaryMobility
config *.slave1.mobility.typename StationaryMobility
config *.slave2.mobility.typename StationaryMobility
config *.slave3.mobility.typename StationaryMobility
config *.attacker1.mobility.typename StationaryMobility
config *.attacker2.mobility.typename StationaryMobility
config *.master.numApps 1
config *.master.app[0].typename UdpBasicApp
config *.master.app[0].destAddresses "\"slave1 slave2 slave3\""
config *.master.app[0].destPort 5000
config *.master.app[0].messageLength 200B
config *.master.app[0].sendInterval 0.02s
config *.slave1.numApps 1
config *.slave1.app[0].typename UdpSink
config *.slave1.app[0].localPort 5000
config *.slave2.numApps 1
config *.slave2.app[0].typename UdpSink
config *.slave2.app[0].localPort 5000
config *.slave3.numApps 1
config *.slave3.app[0].typename UdpSink
config *.slave3.app[0].localPort 5000

par BluetoothNetwork.visualizer.sceneVisualizer typename "\"inet.visualizer.canvas.scene.SceneCanvasVisualizer\""
par BluetoothNetwork.visualizer.sceneVisualizer displayStringTextFormat "\"\""
attr mutable ""
par BluetoothNetwork.visualizer.sceneVisualizer visualizationTargetModule "\"^.^\""
par BluetoothNetwork.visualizer.sceneVisualizer visualizationSubjectModule "\"^.^\""
par BluetoothNetwork.visualizer.sceneVisualizer tags "\"\""
par BluetoothNetwork.visualizer.sceneVisualizer physicalEnvironmentModule "\"physicalEnvironment\""
par BluetoothNetwork.visualizer.sceneVisualizer networkNodeVisualizerModule "\"^.networkNodeVisualizer\""
par BluetoothNetwork.visualizer.sceneVisualizer axisLength "nan m"
attr mutable ""
attr unit m
par BluetoothNetwork.visualizer.sceneVisualizer animationSpeed 0
par BluetoothNetwork.visualizer.sceneVisualizer sceneMinX "nan m"
attr unit m
par BluetoothNetwork.visualizer.sceneVisualizer sceneMinY "nan m"
attr unit m
par BluetoothNetwork.visualizer.sceneVisualizer sceneMinZ "nan m"
attr unit m
par BluetoothNetwork.visualizer.sceneVisualizer sceneMaxX "nan m"
attr unit m
par BluetoothNetwork.visualizer.sceneVisualizer sceneMaxY "nan m"
attr unit m
par BluetoothNetwork.visualizer.sceneVisualizer sceneMaxZ "nan m"
attr unit m
par BluetoothNetwork.visualizer.sceneVisualizer zIndex 0
par BluetoothNetwork.visualizer.sceneVisualizer viewAngle "\"x right y down z out\""
attr mutable ""
par BluetoothNetwork.visualizer.sceneVisualizer viewScale "\"1 1\""
attr mutable ""
par BluetoothNetwork.visualizer.sceneVisualizer viewTranslation "\"0 0\""
attr mutable ""
par BluetoothNetwork.visualizer.sceneVisualizer descriptionFigure "\"\""
par BluetoothNetwork.visualizer.physicalEnvironmentVisualizer typename "\"inet.visualizer.canvas.environment.PhysicalEnvironmentCanvasVisualizer\""
par BluetoothNetwork.visualizer.physicalEnvironmentVisualizer displayStringTextFormat "\"\""
attr mutable ""
par BluetoothNetwork.visualizer.physicalEnvironmentVisualizer visualizationTargetModule "\"^.^\""
par BluetoothNetwork.visualizer.physicalEnvironmentVisualizer visualizationSubjectModule "\"^.^\""
par BluetoothNetwork.visualizer.physicalEnvironmentVisualizer tags "\"\""
par BluetoothNetwork.visualizer.physicalEnvironmentVisualizer physicalEnvironmentModule "\"physicalEnvironment\""
par BluetoothNetwork.visualizer.physicalEnvironmentVisualizer displayObjects true
par BluetoothNetwork.visualizer.physicalEnvironmentVisualizer zIndex 0
par BluetoothNetwork.visualizer.networkNodeVisualizer typename "\"inet.visualizer.canvas.scene.NetworkNodeCanvasVisualizer\""
par BluetoothNetwork.visualizer.networkNodeVisualizer displayStringTextFormat "\"\""
attr mutable ""
par BluetoothNetwork.visualizer.networkNodeVisualizer visualizationTargetModule "\"^.^\""
par BluetoothNetwork.visualizer.networkNodeVisualizer visualizationSubjectModule "\"^.^\""
par BluetoothNetwork.visualizer.networkNodeVisualizer tags "\"\""
par BluetoothNetwork.visualizer.networkNodeVisualizer nodeFilter "\"*\""
attr mutable ""
par BluetoothNetwork.visualizer.networkNodeVisualizer annotationSpacing 4
par BluetoothNetwork.visualizer.networkNodeVisualizer placementPenalty 10
par BluetoothNetwork.visualizer.networkNodeVisualizer zIndex 0
par BluetoothNetwork.visualizer.networkConnectionVisualizer typename "\"inet.visualizer.canvas.scene.NetworkConnectionCanvasVisualizer\""
par BluetoothNetwork.visualizer.networkConnectionVisualizer displayStringTextFormat "\"\""
attr mutable ""
par BluetoothNetwork.visualizer.networkConnectionVisualizer visualizationTargetModule "\"^.^\""
par BluetoothNetwork.visualizer.networkConnectionVisualizer visualizationSubjectModule "\"^.^\""
par BluetoothNetwork.visualizer.networkConnectionVisualizer tags "\"\""
par BluetoothNetwork.visualizer.networkConnectionVisualizer displayNetworkConnections true
par BluetoothNetwork.visualizer.networkConnectionVisualizer nodeFilter "\"\""
attr mutable ""
par BluetoothNetwork.visualizer.networkConnectionVisualizer lineColor "\"black\""
par BluetoothNetwork.visualizer.networkConnectionVisualizer lineStyle "\"solid\""
par BluetoothNetwork.visualizer.networkConnectionVisualizer lineWidth 1
par BluetoothNetwork.visualizer.networkConnectionVisualizer zIndex 0
par BluetoothNetwork.visualizer.mobilityVisualizer typename "\"inet.visualizer.canvas.mobility.MobilityCanvasVisualizer\""
par BluetoothNetwork.visualizer.mobilityVisualizer displayStringTextFormat "\"\""
attr mutable ""
par BluetoothNetwork.visualizer.mobilityVisualizer visualizationTargetModule "\"^.^\""
par BluetoothNetwork.visualizer.mobilityVisualizer visualizationSubjectModule "\"^.^\""
par BluetoothNetwork.visualizer.mobilityVisualizer tags "\"\""
par BluetoothNetwork.visualizer.mobilityVisualizer networkNodeVisualizerModule "\"^.networkNodeVisualizer\""
par BluetoothNetwork.visualizer.mobilityVisualizer displayMobility true
par BluetoothNetwork.visualizer.mobilityVisualizer animationSpeed 0
par BluetoothNetwork.visualizer.mobilityVisualizer moduleFilter "\"**.mobility\""
attr mutable ""
par BluetoothNetwork.visualizer.mobilityVisualizer displayPositions false
par BluetoothNetwork.visualizer.mobilityVisualizer positionCircleRadius 4
par BluetoothNetwork.visualizer.mobilityVisualizer positionCircleLineWidth 1
par BluetoothNetwork.visualizer.mobilityVisualizer positionCircleLineColor "\"dark\""
par BluetoothNetwork.visualizer.mobilityVisualizer positionCircleFillColor "\"dark\""
par BluetoothNetwork.visualizer.mobilityVisualizer displayOrientations false
par BluetoothNetwork.visualizer.mobilityVisualizer orientationPieRadius 32
par BluetoothNetwork.visualizer.mobilityVisualizer orientationPieSize 0.2
par BluetoothNetwork.visualizer.mobilityVisualizer orientationPieOpacity 0.25
par BluetoothNetwork.visualizer.mobilityVisualizer orientationLineColor "\"black\""
par BluetoothNetwork.visualizer.mobilityVisualizer orientationLineStyle "\"solid\""
par BluetoothNetwork.visualizer.mobilityVisualizer orientationLineWidth 1
par BluetoothNetwork.visualizer.mobilityVisualizer orientationFillColor "\"blue\""
par BluetoothNetwork.visualizer.mobilityVisualizer displayVelocities false
par BluetoothNetwork.visualizer.mobilityVisualizer velocityArrowScale 1
par BluetoothNetwork.visualizer.mobilityVisualizer velocityLineColor "\"black\""
par BluetoothNetwork.visualizer.mobilityVisualizer velocityLineStyle "\"solid\""
par BluetoothNetwork.visualizer.mobilityVisualizer velocityLineWidth 1
par BluetoothNetwork.visualizer.mobilityVisualizer displayMovementTrails false
par BluetoothNetwork.visualizer.mobilityVisualizer movementTrailLineColor "\"dark\""
par BluetoothNetwork.visualizer.mobilityVisualizer movementTrailLineStyle "\"solid\""
par BluetoothNetwork.visualizer.mobilityVisualizer movementTrailLineWidth 1
par BluetoothNetwork.visualizer.mobilityVisualizer trailLength 100
par BluetoothNetwork.visualizer.mobilityVisualizer zIndex 0
par BluetoothNetwork.visualizer.statisticVisualizer typename "\"inet.visualizer.canvas.common.StatisticCanvasVisualizer\""
par BluetoothNetwork.visualizer.statisticVisualizer displayStringTextFormat "\"\""
attr mutable ""
par BluetoothNetwork.visualizer.statisticVisualizer visualizationTargetModule "\"^.^\""
par BluetoothNetwork.visualizer.statisticVisualizer visualizationSubjectModule "\"^.^\""
par BluetoothNetwork.visualizer.statisticVisualizer tags "\"\""
par BluetoothNetwork.visualizer.statisticVisualizer networkNodeVisualizerModule "\"^.networkNodeVisualizer\""
par BluetoothNetwork.visualizer.statisticVisualizer displayStatistics false
par BluetoothNetwork.visualizer.statisticVisualizer signalName "\"\""
par BluetoothNetwork.visualizer.statisticVisualizer statisticName "\"\""
par BluetoothNetwork.visualizer.statisticVisualizer statisticUnit "\"\""
par BluetoothNetwork.visualizer.statisticVisualizer statisticExpression "\"\""
par BluetoothNetwork.visualizer.statisticVisualizer sourceFilter "\"**\""
attr mutable ""
par BluetoothNetwork.visualizer.statisticVisualizer format "\"%n: %v %u\""
attr mutable ""
par BluetoothNetwork.visualizer.statisticVisualizer unit "\"\""
par BluetoothNetwork.visualizer.statisticVisualizer font "\"<default>\""
par BluetoothNetwork.visualizer.statisticVisualizer textColor "\"black\""
par BluetoothNetwork.visualizer.statisticVisualizer backgroundColor "\"white\""
par BluetoothNetwork.visualizer.statisticVisualizer opacity 1
par BluetoothNetwork.visualizer.statisticVisualizer placementHint "\"top\""
par BluetoothNetwork.visualizer.statisticVisualizer placementPriority 0
par BluetoothNetwork.visualizer.statisticVisualizer zIndex 10
par BluetoothNetwork.visualizer.statisticVisualizer propertyName "\"\""
par BluetoothNetwork.visualizer.statisticVisualizer propertyIndex "\"\""
par BluetoothNetwork.visualizer.infoVisualizer typename "\"inet.visualizer.canvas.common.InfoCanvasVisualizer\""
par BluetoothNetwork.visualizer.infoVisualizer displayStringTextFormat "\"\""
attr mutable ""
par BluetoothNetwork.visualizer.infoVisualizer visualizationTargetModule "\"^.^\""
par BluetoothNetwork.visualizer.infoVisualizer visualizationSubjectModule "\"^.^\""
par BluetoothNetwork.visualizer.infoVisualizer tags "\"\""
par BluetoothNetwork.visualizer.infoVisualizer networkNodeVisualizerModule "\"^.networkNodeVisualizer\""
par BluetoothNetwork.visualizer.infoVisualizer displayInfos true
par BluetoothNetwork.visualizer.infoVisualizer modules "\"\""
attr mutable ""
par BluetoothNetwork.visualizer.infoVisualizer format "\"%t\""
attr mutable ""
par BluetoothNetwork.visualizer.infoVisualizer font "\"<default>\""
par BluetoothNetwork.visualizer.infoVisualizer textColor "\"black\""
par BluetoothNetwork.visualizer.infoVisualizer textAlignment "\"left\""
attr enum left,right,center
par BluetoothNetwork.visualizer.infoVisualizer backgroundColor "\"white\""
par BluetoothNetwork.visualizer.infoVisualizer lineColor "\"black\""
par BluetoothNetwork.visualizer.infoVisualizer opacity 1
par BluetoothNetwork.visualizer.infoVisualizer placementHint "\"top\""
par BluetoothNetwork.visualizer.infoVisualizer placementPriority 0
par BluetoothNetwork.visualizer.infoVisualizer zIndex 10
par BluetoothNetwork.visualizer.energyStorageVisualizer typename "\"inet.visualizer.canvas.power.EnergyStorageCanvasVisualizer\""
par BluetoothNetwork.visualizer.energyStorageVisualizer displayStringTextFormat "\"\""
attr mutable ""
par BluetoothNetwork.visualizer.energyStorageVisualizer visualizationTargetModule "\"^.^\""
par BluetoothNetwork.visualizer.energyStorageVisualizer visualizationSubjectModule "\"^.^\""
par BluetoothNetwork.visualizer.energyStorageVisualizer tags "\"\""
par BluetoothNetwork.visualizer.energyStorageVisualizer networkNodeVisualizerModule "\"^.networkNodeVisualizer\""
par BluetoothNetwork.visualizer.energyStorageVisualizer displayEnergyStorages false
par BluetoothNetwork.visualizer.energyStorageVisualizer energyStorageFilter "\"**\""
par BluetoothNetwork.visualizer.energyStorageVisualizer color "\"green\""
par BluetoothNetwork.visualizer.energyStorageVisualizer width 8
par BluetoothNetwork.visualizer.energyStorageVisualizer height 24
par BluetoothNetwork.visualizer.energyStorageVisualizer spacing 2
par BluetoothNetwork.visualizer.energyStorageVisualizer placementHint "\"right\""
par BluetoothNetwork.visualizer.energyStorageVisualizer placementPriority 0
par BluetoothNetwork.visualizer.energyStorageVisualizer zIndex 10
par BluetoothNetwork.visualizer.mediumVisualizer typename "\"inet.visualizer.canvas.physicallayer.MediumCanvasVisualizer\""
par BluetoothNetwork.visualizer.mediumVisualizer displayStringTextFormat "\"\""
attr mutable ""
par BluetoothNetwork.visualizer.mediumVisualizer visualizationTargetModule "\"^.^\""
par BluetoothNetwork.visualizer.mediumVisualizer visualizationSubjectModule "\"^.^\""
par BluetoothNetwork.visualizer.mediumVisualizer tags "\"\""
par BluetoothNetwork.visualizer.mediumVisualizer mediumModule "\"radioMedium\""
par BluetoothNetwork.visualizer.mediumVisualizer networkNodeVisualizerModule "\"^.networkNodeVisualizer\""
par BluetoothNetwork.visualizer.mediumVisualizer nodeFilter "\"*\""
attr mutable ""
par BluetoothNetwork.visualizer.mediumVisualizer interfaceFilter "\"*\""
attr mutable ""
par BluetoothNetwork.visualizer.mediumVisualizer packetFilter "(omnetpp::cValueHolder)holder: \"*\""
attr mutable ""
par BluetoothNetwork.visualizer.mediumVisualizer displaySignals true
par BluetoothNetwork.visualizer.mediumVisualizer signalColor "\"dark\""
par BluetoothNetwork.visualizer.mediumVisualizer signalPropagationAnimationSpeed "nan "
attr mutable ""
par BluetoothNetwork.visualizer.mediumVisualizer signalPropagationAnimationTime 1s
attr unit s
par BluetoothNetwork.visualizer.mediumVisualizer signalPropagationAdditionalTime 0s
attr unit s
par BluetoothNetwork.visualizer.mediumVisualizer signalTransmissionAnimationSpeed "nan "
attr mutable ""
par BluetoothNetwork.visualizer.mediumVisualizer signalTransmissionAnimationTime 1s
attr unit s
par BluetoothNetwork.visualizer.mediumVisualizer signalAnimationSpeedChangeTimeMode "\"realTime\""
attr enum realTime,animationTime,simulationTime
par BluetoothNetwork.visualizer.mediumVisualizer signalAnimationSpeedChangeTime 1s
attr unit s
par BluetoothNetwork.visualizer.mediumVisualizer displaySignalDepartures false
par BluetoothNetwork.visualizer.mediumVisualizer signalDepartureImage "\"misc/signal_departure.png\""
par BluetoothNetwork.visualizer.mediumVisualizer signalDeparturePlacementHint "\"topCenter\""
par BluetoothNetwork.visualizer.mediumVisualizer signalDeparturePlacementPriority 1
par BluetoothNetwork.visualizer.mediumVisualizer displaySignalArrivals false
par BluetoothNetwork.visualizer.mediumVisualizer signalArrivalImage "\"misc/signal_arrival.png\""
par BluetoothNetwork.visualizer.mediumVisualizer signalArrivalPlacementHint "\"topCenter\""
par BluetoothNetwork.visualizer.mediumVisualizer signalArrivalPlacementPriority -1
par BluetoothNetwork.visualizer.mediumVisualizer displayCommunicationRanges false
par BluetoothNetwork.visualizer.mediumVisualizer communicationRangeLineColor "\"blue\""
par BluetoothNetwork.visualizer.mediumVisualizer communicationRangeLineStyle "\"solid\""
par BluetoothNetwork.visualizer.mediumVisualizer communicationRangeLineWidth 1
par BluetoothNetwork.visualizer.mediumVisualizer displayInterferenceRanges false
par BluetoothNetwork.visualizer.mediumVisualizer interferenceRangeLineColor "\"gray\""
par BluetoothNetwork.visualizer.mediumVisualizer interferenceRangeLineStyle "\"solid\""
par BluetoothNetwork.visualizer.mediumVisualizer interferenceRangeLineWidth 1
par BluetoothNetwork.visualizer.mediumVisualizer autoPowerAxis true
par BluetoothNetwork.visualizer.mediumVisualizer signalMinPower "inf dBmW"
attr unit dBmW
par BluetoothNetwork.visualizer.mediumVisualizer signalMaxPower 0dBmW
attr unit dBmW
par BluetoothNetwork.visualizer.mediumVisualizer signalMinPowerDensity "inf dBmWpMHz"
attr unit dBmWpMHz
par BluetoothNetwork.visualizer.mediumVisualizer signalMaxPowerDensity "-inf dBmWpMHz"
attr unit dBmWpMHz
par BluetoothNetwork.visualizer.mediumVisualizer autoTimeAxis true
par BluetoothNetwork.visualizer.mediumVisualizer signalMinTime 0s
attr unit s
par BluetoothNetwork.visualizer.mediumVisualizer signalMaxTime 0s
attr unit s
par BluetoothNetwork.visualizer.mediumVisualizer autoFrequencyAxis true
par BluetoothNetwork.visualizer.mediumVisualizer signalMinFrequency "inf Hz"
attr unit Hz
par BluetoothNetwork.visualizer.mediumVisualizer signalMaxFrequency "-inf Hz"
attr unit Hz
par BluetoothNetwork.visualizer.mediumVisualizer displayMainPowerDensityMap false
par BluetoothNetwork.visualizer.mediumVisualizer mainPowerDensityMapPixmapDensity 1
par BluetoothNetwork.visualizer.mediumVisualizer mainPowerDensityMapMinX 0
par BluetoothNetwork.visualizer.mediumVisualizer mainPowerDensityMapMaxX "nan "
par BluetoothNetwork.visualizer.mediumVisualizer mainPowerDensityMapMinY 0
par BluetoothNetwork.visualizer.mediumVisualizer mainPowerDensityMapMaxY "nan "
par BluetoothNetwork.visualizer.mediumVisualizer mainPowerDensityMapZ 0
par BluetoothNetwork.visualizer.mediumVisualizer mainPowerDensityMapFigureXTickCount 3
par BluetoothNetwork.visualizer.mediumVisualizer mainPowerDensityMapFigureYTickCount 3
par BluetoothNetwork.visualizer.mediumVisualizer displayPowerDensityMaps false
par BluetoothNetwork.visualizer.mediumVisualizer powerDensityMapMode "\"auto\""
attr enum total,signal,auto
par BluetoothNetwork.visualizer.mediumVisualizer powerDensityMapPixelMode "\"mean\""
attr enum sample,partition,mean
par BluetoothNetwork.visualizer.mediumVisualizer powerDensityMapApproximationSize 10
par BluetoothNetwork.visualizer.mediumVisualizer powerDensityMapCenterFrequency "nan Hz"
attr mutable ""
attr unit Hz
par BluetoothNetwork.visualizer.mediumVisualizer powerDensityMapBandwidth 0Hz
attr mutable ""
attr unit Hz
par BluetoothNetwork.visualizer.mediumVisualizer powerDensityMapFigureWidth 200
par BluetoothNetwork.visualizer.mediumVisualizer powerDensityMapFigureHeight 120
par BluetoothNetwork.visualizer.mediumVisualizer powerDensityMapPixmapWidth 200
par BluetoothNetwork.visualizer.mediumVisualizer powerDensityMapPixmapHeight 120
par BluetoothNetwork.visualizer.mediumVisualizer powerDensityMapZ 0
par BluetoothNetwork.visualizer.mediumVisualizer powerDensityMapFigureXTickCount 3
par BluetoothNetwork.visualizer.mediumVisualizer powerDensityMapFigureYTickCount 3
par BluetoothNetwork.visualizer.mediumVisualizer displaySpectrums false
par BluetoothNetwork.visualizer.mediumVisualizer spectrumMode "\"auto\""
attr enum total,signal,auto
par BluetoothNetwork.visualizer.mediumVisualizer spectrumFigureWidth 200
par BluetoothNetwork.visualizer.mediumVisualizer spectrumFigureHeight 120
par BluetoothNetwork.visualizer.mediumVisualizer spectrumFigureXTickCount 3
par BluetoothNetwork.visualizer.mediumVisualizer spectrumFigureYTickCount 5
par BluetoothNetwork.visualizer.mediumVisualizer spectrumFigureInterpolationSize 5
par BluetoothNetwork.visualizer.mediumVisualizer spectrumPlacementHint "\"bottomCenter\""
par BluetoothNetwork.visualizer.mediumVisualizer spectrumPlacementPriority -1
par BluetoothNetwork.visualizer.mediumVisualizer displaySpectrograms false
par BluetoothNetwork.visualizer.mediumVisualizer spectrogramMode "\"auto\""
attr enum total,signal,auto
par BluetoothNetwork.visualizer.mediumVisualizer spectrogramPixelMode "\"mean\""
attr enum sample,partition,mean
par BluetoothNetwork.visualizer.mediumVisualizer spectrogramFigureWidth 200
par BluetoothNetwork.visualizer.mediumVisualizer spectrogramFigureHeight 120
par BluetoothNetwork.visualizer.mediumVisualizer spectrogramPixmapWidth 200
par BluetoothNetwork.visualizer.mediumVisualizer spectrogramPixmapHeight 120
par BluetoothNetwork.visualizer.mediumVisualizer spectrogramFigureXTickCount 3
par BluetoothNetwork.visualizer.mediumVisualizer spectrogramFigureYTickCount 5
par BluetoothNetwork.visualizer.mediumVisualizer spectrogramPlacementHint "\"bottomCenter\""
par BluetoothNetwork.visualizer.mediumVisualizer spectrogramPlacementPriority -1
par BluetoothNetwork.visualizer.mediumVisualizer zIndex 0
par BluetoothNetwork.visualizer.mediumVisualizer signalShape "\"ring\""
attr enum ring,sphere
par BluetoothNetwork.visualizer.mediumVisualizer signalOpacity 0.5
par BluetoothNetwork.visualizer.mediumVisualizer signalRingCount 20
par BluetoothNetwork.visualizer.mediumVisualizer signalRingSize 50m
attr unit m
par BluetoothNetwork.visualizer.mediumVisualizer signalFadingDistance 50m
attr unit m
par BluetoothNetwork.visualizer.mediumVisualizer signalFadingFactor 1.2
par BluetoothNetwork.visualizer.mediumVisualizer signalWaveCount 20
par BluetoothNetwork.visualizer.mediumVisualizer signalWaveLength 50m
attr unit m
par BluetoothNetwork.visualizer.mediumVisualizer signalWaveWidth 10m
attr unit m
par BluetoothNetwork.visualizer.mediumVisualizer signalWaveFadingAnimationSpeedFactor 1
par BluetoothNetwork.visualizer.mediumVisualizer displayCommunicationHeat false
par BluetoothNetwork.visualizer.obstacleLossVisualizer typename "\"inet.visualizer.canvas.physicallayer.TracingObstacleLossCanvasVisualizer\""
par BluetoothNetwork.visualizer.obstacleLossVisualizer displayStringTextFormat "\"\""
attr mutable ""
par BluetoothNetwork.visualizer.obstacleLossVisualizer visualizationTargetModule "\"^.^\""
par BluetoothNetwork.visualizer.obstacleLossVisualizer visualizationSubjectModule "\"^.^\""
par BluetoothNetwork.visualizer.obstacleLossVisualizer tags "\"\""
par BluetoothNetwork.visualizer.obstacleLossVisualizer displayIntersections false
par BluetoothNetwork.visualizer.obstacleLossVisualizer intersectionLineColor "\"red\""
par BluetoothNetwork.visualizer.obstacleLossVisualizer intersectionLineStyle "\"solid\""
par BluetoothNetwork.visualizer.obstacleLossVisualizer intersectionLineWidth 1
par BluetoothNetwork.visualizer.obstacleLossVisualizer displayFaceNormalVectors false
par BluetoothNetwork.visualizer.obstacleLossVisualizer faceNormalLineColor "\"grey\""
par BluetoothNetwork.visualizer.obstacleLossVisualizer faceNormalLineStyle "\"solid\""
par BluetoothNetwork.visualizer.obstacleLossVisualizer faceNormalLineWidth 1
par BluetoothNetwork.visualizer.obstacleLossVisualizer fadeOutMode "\"realTime\""
attr enum realTime,animationTime,simulationTime
par BluetoothNetwork.visualizer.obstacleLossVisualizer fadeOutTime 1s
attr unit s
par BluetoothNetwork.visualizer.obstacleLossVisualizer fadeOutAnimationSpeed 0
par BluetoothNetwork.visualizer.obstacleLossVisualizer zIndex 0
par BluetoothNetwork.visualizer.packetDropVisualizer typename "\"inet.visualizer.canvas.common.PacketDropCanvasVisualizer\""
par BluetoothNetwork.visualizer.packetDropVisualizer displayStringTextFormat "\"\""
attr mutable ""
par BluetoothNetwork.visualizer.packetDropVisualizer visualizationTargetModule "\"^.^\""
par BluetoothNetwork.visualizer.packetDropVisualizer visualizationSubjectModule "\"^.^\""
par BluetoothNetwork.visualizer.packetDropVisualizer tags "\"\""
par BluetoothNetwork.visualizer.packetDropVisualizer displayPacketDrops false
par BluetoothNetwork.visualizer.packetDropVisualizer nodeFilter "\"*\""
attr mutable ""
par BluetoothNetwork.visualizer.packetDropVisualizer interfaceFilter "\"*\""
attr mutable ""
par BluetoothNetwork.visualizer.packetDropVisualizer packetFilter "(omnetpp::cValueHolder)holder: \"*\""
attr mutable ""
par BluetoothNetwork.visualizer.packetDropVisualizer detailsFilter "\"*\""
attr mutable ""
par BluetoothNetwork.visualizer.packetDropVisualizer icon "\"msg/packet_s\""
par BluetoothNetwork.visualizer.packetDropVisualizer iconTintAmount 1
par BluetoothNetwork.visualizer.packetDropVisualizer iconTintColor "\"dark\""
par BluetoothNetwork.visualizer.packetDropVisualizer labelFormat "\"%n\""
attr mutable ""
par BluetoothNetwork.visualizer.packetDropVisualizer labelFont "\"<default>\""
par BluetoothNetwork.visualizer.packetDropVisualizer labelColor "\"black\""
par BluetoothNetwork.visualizer.packetDropVisualizer fadeOutMode "\"realTime\""
attr enum realTime,animationTime,simulationTime
par BluetoothNetwork.visualizer.packetDropVisualizer fadeOutTime 1s
attr unit s
par BluetoothNetwork.visualizer.packetDropVisualizer fadeOutAnimationSpeed 0
par BluetoothNetwork.visualizer.packetDropVisualizer zIndex 10
par BluetoothNetwork.visualizer.packetDropVisualizer dx 32
par BluetoothNetwork.visualizer.packetDropVisualizer dy 64
par BluetoothNetwork.visualizer.packetFlowVisualizer typename "\"inet.visualizer.canvas.flow.PacketFlowCanvasVisualizer\""
par BluetoothNetwork.visualizer.packetFlowVisualizer displayStringTextFormat "\"\""
attr mutable ""
par BluetoothNetwork.visualizer.packetFlowVisualizer visualizationTargetModule "\"^.^\""
par BluetoothNetwork.visualizer.packetFlowVisualizer visualizationSubjectModule "\"^.^\""
par BluetoothNetwork.visualizer.packetFlowVisualizer tags "\"\""
par BluetoothNetwork.visualizer.packetFlowVisualizer displayRoutes false
par BluetoothNetwork.visualizer.packetFlowVisualizer startPathSignal "\"packetFlowStarted\""
par BluetoothNetwork.visualizer.packetFlowVisualizer extendPathSignal "\"packetReceivedFromLower\""
par BluetoothNetwork.visualizer.packetFlowVisualizer endPathSignal "\"packetFlowEnded\""
par BluetoothNetwork.visualizer.packetFlowVisualizer nodeFilter "\"*\""
attr mutable ""
par BluetoothNetwork.visualizer.packetFlowVisualizer packetFilter "(omnetpp::cValueHolder)holder: \"*\""
attr mutable ""
par BluetoothNetwork.visualizer.packetFlowVisualizer lineColor "\"dark\""
par BluetoothNetwork.visualizer.packetFlowVisualizer lineStyle "\"dashed\""
par BluetoothNetwork.visualizer.packetFlowVisualizer lineWidth 3
par BluetoothNetwork.visualizer.packetFlowVisualizer lineSmooth false
par BluetoothNetwork.visualizer.packetFlowVisualizer lineShift 16
par BluetoothNetwork.visualizer.packetFlowVisualizer lineShiftMode "\"normal\""
par BluetoothNetwork.visualizer.packetFlowVisualizer lineContactSpacing 3
par BluetoothNetwork.visualizer.packetFlowVisualizer lineContactMode "\"rectangular\""
attr enum circular,rectangular
par BluetoothNetwork.visualizer.packetFlowVisualizer labelFormat "\"%L %p pk (%l)\""
par BluetoothNetwork.visualizer.packetFlowVisualizer labelFont "\"<default>, 8px\""
par BluetoothNetwork.visualizer.packetFlowVisualizer labelColor "\"\""
par BluetoothNetwork.visualizer.packetFlowVisualizer fadeOutMode "\"realTime\""
attr enum realTime,animationTime,simulationTime
par BluetoothNetwork.visualizer.packetFlowVisualizer fadeOutTime 0s
attr unit s
par BluetoothNetwork.visualizer.packetFlowVisualizer fadeOutAnimationSpeed 0
par BluetoothNetwork.visualizer.packetFlowVisualizer zIndex 4
par BluetoothNetwork.visualizer.queueVisualizer typename "\"inet.visualizer.canvas.common.QueueCanvasVisualizer\""
par BluetoothNetwork.visualizer.queueVisualizer displayStringTextFormat "\"\""
attr mutable ""
par BluetoothNetwork.visualizer.queueVisualizer visualizationTargetModule "\"^.^\""
par BluetoothNetwork.visualizer.queueVisualizer visualizationSubjectModule "\"^.^\""
par BluetoothNetwork.visualizer.queueVisualizer tags "\"\""
par BluetoothNetwork.visualizer.queueVisualizer networkNodeVisualizerModule "\"^.networkNodeVisualizer\""
par BluetoothNetwork.visualizer.queueVisualizer displayQueues false
par BluetoothNetwork.visualizer.queueVisualizer queueFilter "\"**\""
par BluetoothNetwork.visualizer.queueVisualizer color "\"blue\""
par BluetoothNetwork.visualizer.queueVisualizer width 8
par BluetoothNetwork.visualizer.queueVisualizer height 24
par BluetoothNetwork.visualizer.queueVisualizer spacing 2
par BluetoothNetwork.visualizer.queueVisualizer placementHint "\"right\""
par BluetoothNetwork.visualizer.queueVisualizer placementPriority 0
par BluetoothNetwork.visualizer.queueVisualizer zIndex 10
par BluetoothNetwork.visualizer.gateScheduleVisualizer typename "\"inet.visualizer.canvas.common.GateScheduleCanvasVisualizer\""
par BluetoothNetwork.visualizer.gateScheduleVisualizer displayStringTextFormat "\"\""
attr mutable ""
par BluetoothNetwork.visualizer.gateScheduleVisualizer visualizationTargetModule "\"^.^\""
par BluetoothNetwork.visualizer.gateScheduleVisualizer visualizationSubjectModule "\"^.^\""
par BluetoothNetwork.visualizer.gateScheduleVisualizer tags "\"\""
par BluetoothNetwork.visualizer.gateScheduleVisualizer networkNodeVisualizerModule "\"^.networkNodeVisualizer\""
par BluetoothNetwork.visualizer.gateScheduleVisualizer displayGateSchedules false
par BluetoothNetwork.visualizer.gateScheduleVisualizer labelFormat "\"%i %D\""
par BluetoothNetwork.visualizer.gateScheduleVisualizer gateFilter "\"**\""
par BluetoothNetwork.visualizer.gateScheduleVisualizer width 100
par BluetoothNetwork.visualizer.gateScheduleVisualizer height 8
par BluetoothNetwork.visualizer.gateScheduleVisualizer spacing 2
par BluetoothNetwork.visualizer.gateScheduleVisualizer placementHint "\"right\""
par BluetoothNetwork.visualizer.gateScheduleVisualizer placementPriority 0
par BluetoothNetwork.visualizer.gateScheduleVisualizer displayDuration 0s
attr mutable ""
attr unit s
par BluetoothNetwork.visualizer.gateScheduleVisualizer currentTimePosition 50
par BluetoothNetwork.visualizer.gateScheduleVisualizer zIndex 10
par BluetoothNetwork.visualizer.radioVisualizer typename "\"inet.visualizer.canvas.physicallayer.RadioCanvasVisualizer\""
par BluetoothNetwork.visualizer.radioVisualizer displayStringTextFormat "\"\""
attr mutable ""
par BluetoothNetwork.visualizer.radioVisualizer visualizationTargetModule "\"^.^\""
par BluetoothNetwork.visualizer.radioVisualizer visualizationSubjectModule "\"^.^\""
par BluetoothNetwork.visualizer.radioVisualizer tags "\"\""
par BluetoothNetwork.visualizer.radioVisualizer networkNodeVisualizerModule "\"^.networkNodeVisualizer\""
par BluetoothNetwork.visualizer.radioVisualizer displayRadios false
par BluetoothNetwork.visualizer.radioVisualizer displayRadioMode true
par BluetoothNetwork.visualizer.radioVisualizer displayReceptionState true
par BluetoothNetwork.visualizer.radioVisualizer displayTransmissionState true
par BluetoothNetwork.visualizer.radioVisualizer displayAntennaLobes false
par BluetoothNetwork.visualizer.radioVisualizer radioFilter "\"**\""
attr mutable ""
par BluetoothNetwork.visualizer.radioVisualizer radioModeImages "\"block/process_vs block/timer_vs block/wrx_vs block/wtx_vs block/wrxtx_vs block/cogwheel_vs\""
par BluetoothNetwork.visualizer.radioVisualizer receptionStateImages "\"- - misc/receiving misc/receiving\""
par BluetoothNetwork.visualizer.radioVisualizer transmissionStateImages "\"- - misc/transmitting\""
par BluetoothNetwork.visualizer.radioVisualizer width 16
par BluetoothNetwork.visualizer.radioVisualizer height 16
par BluetoothNetwork.visualizer.radioVisualizer placementHint "\"bottomRight\""
par BluetoothNetwork.visualizer.radioVisualizer placementPriority 0
par BluetoothNetwork.visualizer.radioVisualizer antennaLobeNormalize false
par BluetoothNetwork.visualizer.radioVisualizer antennaLobeRelativeLabels false
par BluetoothNetwork.visualizer.radioVisualizer antennaLobePlaneGlobal true
par BluetoothNetwork.visualizer.radioVisualizer antennaLobePlane "\"view\""
attr enum view,xy,xz,yz
par BluetoothNetwork.visualizer.radioVisualizer antennaLobeMode "\"logarithmic\""
attr enum logarithmic,linear
par BluetoothNetwork.visualizer.radioVisualizer antennaLobeLogarithmicBase 10
par BluetoothNetwork.visualizer.radioVisualizer antennaLobeLogarithmicScale 100
par BluetoothNetwork.visualizer.radioVisualizer antennaLobeRadius 100
par BluetoothNetwork.visualizer.radioVisualizer antennaLobeStep 10deg
attr unit deg
par BluetoothNetwork.visualizer.radioVisualizer antennaLobeOpacity 0.25
par BluetoothNetwork.visualizer.radioVisualizer antennaLobeLineSmooth true
par BluetoothNetwork.visualizer.radioVisualizer antennaLobeLineColor "\"black\""
par BluetoothNetwork.visualizer.radioVisualizer antennaLobeLineStyle "\"solid\""
par BluetoothNetwork.visualizer.radioVisualizer antennaLobeLineWidth 1
par BluetoothNetwork.visualizer.radioVisualizer antennaLobeFillColor "\"white\""
par BluetoothNetwork.visualizer.radioVisualizer zIndex 10
par BluetoothNetwork.visualizer.physicalLinkVisualizer typename "\"inet.visualizer.canvas.physicallayer.PhysicalLinkCanvasVisualizer\""
par BluetoothNetwork.visualizer.physicalLinkVisualizer displayStringTextFormat "\"\""
attr mutable ""
par BluetoothNetwork.visualizer.physicalLinkVisualizer visualizationTargetModule "\"^.^\""
par BluetoothNetwork.visualizer.physicalLinkVisualizer visualizationSubjectModule "\"^.^\""
par BluetoothNetwork.visualizer.physicalLinkVisualizer tags "\"\""
par BluetoothNetwork.visualizer.physicalLinkVisualizer displayLinks false
par BluetoothNetwork.visualizer.physicalLinkVisualizer activityLevel "\"service\""
attr enum service,peer,protocol
par BluetoothNetwork.visualizer.physicalLinkVisualizer nodeFilter "\"*\""
attr mutable ""
par BluetoothNetwork.visualizer.physicalLinkVisualizer interfaceFilter "\"*\""
attr mutable ""
par BluetoothNetwork.visualizer.physicalLinkVisualizer packetFilter "(omnetpp::cValueHolder)holder: \"*\""
attr mutable ""
par BluetoothNetwork.visualizer.physicalLinkVisualizer lineColor "\"olive\""
par BluetoothNetwork.visualizer.physicalLinkVisualizer lineStyle "\"dotted\""
par BluetoothNetwork.visualizer.physicalLinkVisualizer lineWidth 3
par BluetoothNetwork.visualizer.physicalLinkVisualizer lineShift 16
par BluetoothNetwork.visualizer.physicalLinkVisualizer lineShiftMode "\"normal\""
par BluetoothNetwork.visualizer.physicalLinkVisualizer lineContactSpacing 3
par BluetoothNetwork.visualizer.physicalLinkVisualizer lineContactMode "\"rectangular\""
attr enum circular,rectangular
par BluetoothNetwork.visualizer.physicalLinkVisualizer labelFormat "\"%n\""
par BluetoothNetwork.visualizer.physicalLinkVisualizer labelFont "\"<default>, 8px\""
par BluetoothNetwork.visualizer.physicalLinkVisualizer labelColor "\"olive\""
par BluetoothNetwork.visualizer.physicalLinkVisualizer fadeOutMode "\"realTime\""
attr enum realTime,animationTime,simulationTime
par BluetoothNetwork.visualizer.physicalLinkVisualizer fadeOutTime 1s
attr unit s
par BluetoothNetwork.visualizer.physicalLinkVisualizer fadeOutAnimationSpeed 0
par BluetoothNetwork.visualizer.physicalLinkVisualizer holdAnimationTime 0s
attr unit s
par BluetoothNetwork.visualizer.physicalLinkVisualizer zIndex 1
par BluetoothNetwork.visualizer.interfaceTableVisualizer typename "\"inet.visualizer.canvas.linklayer.InterfaceTableCanvasVisualizer\""
par BluetoothNetwork.visualizer.interfaceTableVisualizer displayStringTextFormat "\"\""
attr mutable ""
par BluetoothNetwork.visualizer.interfaceTableVisualizer visualizationTargetModule "\"^.^\""
par BluetoothNetwork.visualizer.interfaceTableVisualizer visualizationSubjectModule "\"^.^\""
par BluetoothNetwork.visualizer.interfaceTableVisualizer tags "\"\""
par BluetoothNetwork.visualizer.interfaceTableVisualizer networkNodeVisualizerModule "\"^.networkNodeVisualizer\""
par BluetoothNetwork.visualizer.interfaceTableVisualizer displayInterfaceTables false
par BluetoothNetwork.visualizer.interfaceTableVisualizer displayWiredInterfacesAtConnections true
par BluetoothNetwork.visualizer.interfaceTableVisualizer displayBackground false
par BluetoothNetwork.visualizer.interfaceTableVisualizer nodeFilter "\"*\""
attr mutable ""
par BluetoothNetwork.visualizer.interfaceTableVisualizer interfaceFilter "\"not(lo*)\""
attr mutable ""
par BluetoothNetwork.visualizer.interfaceTableVisualizer format "\"%N %\\\\%a%/%l\""
attr mutable ""
par BluetoothNetwork.visualizer.interfaceTableVisualizer placementHint "\"top\""
par BluetoothNetwork.visualizer.interfaceTableVisualizer placementPriority 0
par BluetoothNetwork.visualizer.interfaceTableVisualizer font "\"<default>\""
par BluetoothNetwork.visualizer.interfaceTableVisualizer textColor "\"#005030\""
par BluetoothNetwork.visualizer.interfaceTableVisualizer backgroundColor "\"white\""
par BluetoothNetwork.visualizer.interfaceTableVisualizer opacity 1
par BluetoothNetwork.visualizer.interfaceTableVisualizer zIndex 10
par BluetoothNetwork.visualizer.interfaceTableVisualizer anchor "\"l\""
attr enum l,r,t
par BluetoothNetwork.visualizer.dataLinkVisualizer typename "\"inet.visualizer.canvas.linklayer.DataLinkCanvasVisualizer\""
par BluetoothNetwork.visualizer.dataLinkVisualizer displayStringTextFormat "\"\""
attr mutable ""
par BluetoothNetwork.visualizer.dataLinkVisualizer visualizationTargetModule "\"^.^\""
par BluetoothNetwork.visualizer.dataLinkVisualizer visualizationSubjectModule "\"^.^\""
par BluetoothNetwork.visualizer.dataLinkVisualizer tags "\"\""
par BluetoothNetwork.visualizer.dataLinkVisualizer displayLinks false
par BluetoothNetwork.visualizer.dataLinkVisualizer activityLevel "\"service\""
attr enum service,peer,protocol
par BluetoothNetwork.visualizer.dataLinkVisualizer nodeFilter "\"*\""
attr mutable ""
par BluetoothNetwork.visualizer.dataLinkVisualizer interfaceFilter "\"*\""
attr mutable ""
par BluetoothNetwork.visualizer.dataLinkVisualizer packetFilter "(omnetpp::cValueHolder)holder: \"*\""
attr mutable ""
par BluetoothNetwork.visualizer.dataLinkVisualizer lineColor "\"darkcyan\""
par BluetoothNetwork.visualizer.dataLinkVisualizer lineStyle "\"solid\""
par BluetoothNetwork.visualizer.dataLinkVisualizer lineWidth 3
par BluetoothNetwork.visualizer.dataLinkVisualizer lineShift 16
par BluetoothNetwork.visualizer.dataLinkVisualizer lineShiftMode "\"normal\""
par BluetoothNetwork.visualizer.dataLinkVisualizer lineContactSpacing 3
par BluetoothNetwork.visualizer.dataLinkVisualizer lineContactMode "\"rectangular\""
attr enum circular,rectangular
par BluetoothNetwork.visualizer.dataLinkVisualizer labelFormat "\"%n\""
par BluetoothNetwork.visualizer.dataLinkVisualizer labelFont "\"<default>, 8px\""
par BluetoothNetwork.visualizer.dataLinkVisualizer labelColor "\"darkcyan\""
par BluetoothNetwork.visualizer.dataLinkVisualizer fadeOutMode "\"realTime\""
attr enum realTime,animationTime,simulationTime
par BluetoothNetwork.visualizer.dataLinkVisualizer fadeOutTime 1s
attr unit s
par BluetoothNetwork.visualizer.dataLinkVisualizer fadeOutAnimationSpeed 0
par BluetoothNetwork.visualizer.dataLinkVisualizer holdAnimationTime 0s
attr unit s
par BluetoothNetwork.visualizer.dataLinkVisualizer zIndex 2
par BluetoothNetwork.visualizer.linkBreakVisualizer typename "\"inet.visualizer.canvas.linklayer.LinkBreakCanvasVisualizer\""
par BluetoothNetwork.visualizer.linkBreakVisualizer displayStringTextFormat "\"\""
attr mutable ""
par BluetoothNetwork.visualizer.linkBreakVisualizer visualizationTargetModule "\"^.^\""
par BluetoothNetwork.visualizer.linkBreakVisualizer visualizationSubjectModule "\"^.^\""
par BluetoothNetwork.visualizer.linkBreakVisualizer tags "\"\""
par BluetoothNetwork.visualizer.linkBreakVisualizer displayLinkBreaks false
par BluetoothNetwork.visualizer.linkBreakVisualizer nodeFilter "\"*\""
attr mutable ""
par BluetoothNetwork.visualizer.linkBreakVisualizer interfaceFilter "\"*\""
attr mutable ""
par BluetoothNetwork.visualizer.linkBreakVisualizer packetFilter "(omnetpp::cValueHolder)holder: \"*\""
attr mutable ""
par BluetoothNetwork.visualizer.linkBreakVisualizer icon "\"status/stop\""
par BluetoothNetwork.visualizer.linkBreakVisualizer iconTintAmount 0
par BluetoothNetwork.visualizer.linkBreakVisualizer iconTintColor "\"\""
par BluetoothNetwork.visualizer.linkBreakVisualizer fadeOutMode "\"realTime\""
attr enum realTime,animationTime,simulationTime
par BluetoothNetwork.visualizer.linkBreakVisualizer fadeOutTime 1s
attr unit s
par BluetoothNetwork.visualizer.linkBreakVisualizer fadeOutAnimationSpeed 0
par BluetoothNetwork.visualizer.linkBreakVisualizer zIndex 2
par BluetoothNetwork.visualizer.ieee80211Visualizer typename "\"inet.visualizer.canvas.linklayer.Ieee80211CanvasVisualizer\""
par BluetoothNetwork.visualizer.ieee80211Visualizer displayStringTextFormat "\"\""
attr mutable ""
par BluetoothNetwork.visualizer.ieee80211Visualizer visualizationTargetModule "\"^.^\""
par BluetoothNetwork.visualizer.ieee80211Visualizer visualizationSubjectModule "\"^.^\""
par BluetoothNetwork.visualizer.ieee80211Visualizer tags "\"\""
par BluetoothNetwork.visualizer.ieee80211Visualizer networkNodeVisualizerModule "\"^.networkNodeVisualizer\""
par BluetoothNetwork.visualizer.ieee80211Visualizer displayAssociations false
par BluetoothNetwork.visualizer.ieee80211Visualizer nodeFilter "\"*\""
attr mutable ""
par BluetoothNetwork.visualizer.ieee80211Visualizer interfaceFilter "\"*\""
attr mutable ""
par BluetoothNetwork.visualizer.ieee80211Visualizer minPower -85dBm
attr unit dBm
par BluetoothNetwork.visualizer.ieee80211Visualizer maxPower -50dBm
attr unit dBm
par BluetoothNetwork.visualizer.ieee80211Visualizer icons "\"misc/signal_power_0 misc/signal_power_1 misc/signal_power_2 misc/signal_power_3\""
par BluetoothNetwork.visualizer.ieee80211Visualizer iconColor "\"dark\""
par BluetoothNetwork.visualizer.ieee80211Visualizer labelFont "\"<default>\""
par BluetoothNetwork.visualizer.ieee80211Visualizer labelColor "\"black\""
par BluetoothNetwork.visualizer.ieee80211Visualizer placementHint "\"top\""
par BluetoothNetwork.visualizer.ieee80211Visualizer placementPriority 0
par BluetoothNetwork.visualizer.ieee80211Visualizer zIndex 2
par BluetoothNetwork.visualizer.networkRouteVisualizer typename "\"inet.visualizer.canvas.networklayer.NetworkRouteCanvasVisualizer\""
par BluetoothNetwork.visualizer.networkRouteVisualizer displayStringTextFormat "\"\""
attr mutable ""
par BluetoothNetwork.visualizer.networkRouteVisualizer visualizationTargetModule "\"^.^\""
par BluetoothNetwork.visualizer.networkRouteVisualizer visualizationSubjectModule "\"^.^\""
par BluetoothNetwork.visualizer.networkRouteVisualizer tags "\"\""
par BluetoothNetwork.visualizer.networkRouteVisualizer displayRoutes false
par BluetoothNetwork.visualizer.networkRouteVisualizer startPathSignal "\"packetReceivedFromUpper\""
par BluetoothNetwork.visualizer.networkRouteVisualizer extendPathSignal "\"packetReceivedFromLower\""
par BluetoothNetwork.visualizer.networkRouteVisualizer endPathSignal "\"packetSentToUpper\""
par BluetoothNetwork.visualizer.networkRouteVisualizer nodeFilter "\"*\""
attr mutable ""
par BluetoothNetwork.visualizer.networkRouteVisualizer packetFilter "(omnetpp::cValueHolder)holder: \"*\""
attr mutable ""
par BluetoothNetwork.visualizer.networkRouteVisualizer lineColor "\"dark\""
par BluetoothNetwork.visualizer.networkRouteVisualizer lineStyle "\"solid\""
par BluetoothNetwork.visualizer.networkRouteVisualizer lineWidth 3
par BluetoothNetwork.visualizer.networkRouteVisualizer lineSmooth false
par BluetoothNetwork.visualizer.networkRouteVisualizer lineShift 16
par BluetoothNetwork.visualizer.networkRouteVisualizer lineShiftMode "\"normal\""
par BluetoothNetwork.visualizer.networkRouteVisualizer lineContactSpacing 3
par BluetoothNetwork.visualizer.networkRouteVisualizer lineContactMode "\"rectangular\""
attr enum circular,rectangular
par BluetoothNetwork.visualizer.networkRouteVisualizer labelFormat "\"%n\""
par BluetoothNetwork.visualizer.networkRouteVisualizer labelFont "\"<default>, 8px\""
par BluetoothNetwork.visualizer.networkRouteVisualizer labelColor "\"\""
par BluetoothNetwork.visualizer.networkRouteVisualizer fadeOutMode "\"realTime\""
attr enum realTime,animationTime,simulationTime
par BluetoothNetwork.visualizer.networkRouteVisualizer fadeOutTime 1s
attr unit s
par BluetoothNetwork.visualizer.networkRouteVisualizer fadeOutAnimationSpeed 0
par BluetoothNetwork.visualizer.networkRouteVisualizer zIndex 3
par BluetoothNetwork.visualizer.routingTableVisualizer typename "\"inet.visualizer.canvas.networklayer.RoutingTableCanvasVisualizer\""
par BluetoothNetwork.visualizer.routingTableVisualizer displayStringTextFormat "\"\""
attr mutable ""
par BluetoothNetwork.visualizer.routingTableVisualizer visualizationTargetModule "\"^.^\""
par BluetoothNetwork.visualizer.routingTableVisualizer visualizationSubjectModule "\"^.^\""
par BluetoothNetwork.visualizer.routingTableVisualizer tags "\"\""
par BluetoothNetwork.visualizer.routingTableVisualizer displayRoutingTables false
par BluetoothNetwork.visualizer.routingTableVisualizer displayRoutesIndividually true
par BluetoothNetwork.visualizer.routingTableVisualizer displayLabels true
par BluetoothNetwork.visualizer.routingTableVisualizer destinationFilter "\"*\""
attr mutable ""
par BluetoothNetwork.visualizer.routingTableVisualizer nodeFilter "\"*\""
attr mutable ""
par BluetoothNetwork.visualizer.routingTableVisualizer multicastSourceNodeFilter "\"*\""
attr mutable ""
par BluetoothNetwork.visualizer.routingTableVisualizer multicastSourceAddressFilter "\"*\""
attr mutable ""
par BluetoothNetwork.visualizer.routingTableVisualizer multicastGroupFilter "\"*\""
attr mutable ""
par BluetoothNetwork.visualizer.routingTableVisualizer lineColor "\"black\""
par BluetoothNetwork.visualizer.routingTableVisualizer lineStyle "\"solid\""
par BluetoothNetwork.visualizer.routingTableVisualizer lineWidth 2
par BluetoothNetwork.visualizer.routingTableVisualizer lineShift 16
par BluetoothNetwork.visualizer.routingTableVisualizer lineShiftMode "\"normal\""
par BluetoothNetwork.visualizer.routingTableVisualizer lineContactSpacing 3
par BluetoothNetwork.visualizer.routingTableVisualizer lineContactMode "\"rectangular\""
attr enum circular,rectangular
par BluetoothNetwork.visualizer.routingTableVisualizer labelFormat "\"%d/%m -> %g (%n)\""
attr mutable ""
par BluetoothNetwork.visualizer.routingTableVisualizer labelFont "\"<default>, 8px\""
par BluetoothNetwork.visualizer.routingTableVisualizer labelColor "\"black\""
par BluetoothNetwork.visualizer.routingTableVisualizer zIndex 0
par BluetoothNetwork.visualizer.transportRouteVisualizer typename "\"inet.visualizer.canvas.transportlayer.TransportRouteCanvasVisualizer\""
par BluetoothNetwork.visualizer.transportRouteVisualizer displayStringTextFormat "\"\""
attr mutable ""
par BluetoothNetwork.visualizer.transportRouteVisualizer visualizationTargetModule "\"^.^\""
par BluetoothNetwork.visualizer.transportRouteVisualizer visualizationSubjectModule "\"^.^\""
par BluetoothNetwork.visualizer.transportRouteVisualizer tags "\"\""
par BluetoothNetwork.visualizer.transportRouteVisualizer displayRoutes false
par BluetoothNetwork.visualizer.transportRouteVisualizer startPathSignal "\"packetReceivedFromUpper\""
par BluetoothNetwork.visualizer.transportRouteVisualizer extendPathSignal "\"packetReceivedFromLower\""
par BluetoothNetwork.visualizer.transportRouteVisualizer endPathSignal "\"packetSentToUpper\""
par BluetoothNetwork.visualizer.transportRouteVisualizer nodeFilter "\"*\""
attr mutable ""
par BluetoothNetwork.visualizer.transportRouteVisualizer packetFilter "(omnetpp::cValueHolder)holder: \"*\""
attr mutable ""
par BluetoothNetwork.visualizer.transportRouteVisualizer lineColor "\"dark\""
par BluetoothNetwork.visualizer.transportRouteVisualizer lineStyle "\"solid\""
par BluetoothNetwork.visualizer.transportRouteVisualizer lineWidth 3
par BluetoothNetwork.visualizer.transportRouteVisualizer lineSmooth false
par BluetoothNetwork.visualizer.transportRouteVisualizer lineShift 16
par BluetoothNetwork.visualizer.transportRouteVisualizer lineShiftMode "\"normal\""
par BluetoothNetwork.visualizer.transportRouteVisualizer lineContactSpacing 3
par BluetoothNetwork.visualizer.transportRouteVisualizer lineContactMode "\"rectangular\""
attr enum circular,rectangular
par BluetoothNetwork.visualizer.transportRouteVisualizer labelFormat "\"%n\""
par BluetoothNetwork.visualizer.transportRouteVisualizer labelFont "\"<default>, 8px\""
par BluetoothNetwork.visualizer.transportRouteVisualizer labelColor "\"\""
par BluetoothNetwork.visualizer.transportRouteVisualizer fadeOutMode "\"realTime\""
attr enum realTime,animationTime,simulationTime
par BluetoothNetwork.visualizer.transportRouteVisualizer fadeOutTime 1s
attr unit s
par BluetoothNetwork.visualizer.transportRouteVisualizer fadeOutAnimationSpeed 0
par BluetoothNetwork.visualizer.transportRouteVisualizer zIndex 4
par BluetoothNetwork.visualizer.transportConnectionVisualizer typename "\"inet.visualizer.canvas.transportlayer.TransportConnectionCanvasVisualizer\""
par BluetoothNetwork.visualizer.transportConnectionVisualizer displayStringTextFormat "\"\""
attr mutable ""
par BluetoothNetwork.visualizer.transportConnectionVisualizer visualizationTargetModule "\"^.^\""
par BluetoothNetwork.visualizer.transportConnectionVisualizer visualizationSubjectModule "\"^.^\""
par BluetoothNetwork.visualizer.transportConnectionVisualizer tags "\"\""
par BluetoothNetwork.visualizer.transportConnectionVisualizer networkNodeVisualizerModule "\"^.networkNodeVisualizer\""
par BluetoothNetwork.visualizer.transportConnectionVisualizer displayTransportConnections false
par BluetoothNetwork.visualizer.transportConnectionVisualizer sourceNodeFilter "\"*\""
attr mutable ""
par BluetoothNetwork.visualizer.transportConnectionVisualizer sourcePortFilter "\"*\""
attr mutable ""
par BluetoothNetwork.visualizer.transportConnectionVisualizer destinationNodeFilter "\"*\""
attr mutable ""
par BluetoothNetwork.visualizer.transportConnectionVisualizer destinationPortFilter "\"*\""
attr mutable ""
par BluetoothNetwork.visualizer.transportConnectionVisualizer icon "\"misc/marker_s\""
par BluetoothNetwork.visualizer.transportConnectionVisualizer iconColor "\"dark\""
par BluetoothNetwork.visualizer.transportConnectionVisualizer labelFont "\"<default>\""
par BluetoothNetwork.visualizer.transportConnectionVisualizer labelColor "\"black\""
par BluetoothNetwork.visualizer.transportConnectionVisualizer placementHint "\"top\""
par BluetoothNetwork.visualizer.transportConnectionVisualizer placementPriority 0
par BluetoothNetwork.visualizer.transportConnectionVisualizer zIndex 4
par BluetoothNetwork.visualizer.failureProtectionConfigurationVisualizer typename "\"inet.visualizer.canvas.configurator.FailureProtectionConfigurationCanvasVisualizer\""
par BluetoothNetwork.visualizer.failureProtectionConfigurationVisualizer displayStringTextFormat "\"\""
attr mutable ""
par BluetoothNetwork.visualizer.failureProtectionConfigurationVisualizer visualizationTargetModule "\"^.^\""
par BluetoothNetwork.visualizer.failureProtectionConfigurationVisualizer visualizationSubjectModule "\"^.^\""
par BluetoothNetwork.visualizer.failureProtectionConfigurationVisualizer tags "\"\""
par BluetoothNetwork.visualizer.failureProtectionConfigurationVisualizer displayTrees false
par BluetoothNetwork.visualizer.failureProtectionConfigurationVisualizer lineColor "\"dark\""
par BluetoothNetwork.visualizer.failureProtectionConfigurationVisualizer lineStyle "\"solid\""
par BluetoothNetwork.visualizer.failureProtectionConfigurationVisualizer lineWidth 3
par BluetoothNetwork.visualizer.failureProtectionConfigurationVisualizer lineSmooth false
par BluetoothNetwork.visualizer.failureProtectionConfigurationVisualizer lineShift 16
par BluetoothNetwork.visualizer.failureProtectionConfigurationVisualizer lineShiftMode "\"normal\""
par BluetoothNetwork.visualizer.failureProtectionConfigurationVisualizer lineContactSpacing 3
par BluetoothNetwork.visualizer.failureProtectionConfigurationVisualizer lineContactMode "\"rectangular\""
attr enum circular,rectangular
par BluetoothNetwork.visualizer.failureProtectionConfigurationVisualizer failureProtectionConfiguratorModule "\"failureProtectionConfigurator\""
par BluetoothNetwork.visualizer.failureProtectionConfigurationVisualizer streamFilter "\"*\""
par BluetoothNetwork.visualizer.failureProtectionConfigurationVisualizer zIndex 3
par BluetoothNetwork.visualizer.streamRedundancyConfigurationVisualizer typename "\"inet.visualizer.canvas.configurator.StreamRedundancyConfigurationCanvasVisualizer\""
par BluetoothNetwork.visualizer.streamRedundancyConfigurationVisualizer displayStringTextFormat "\"\""
attr mutable ""
par BluetoothNetwork.visualizer.streamRedundancyConfigurationVisualizer visualizationTargetModule "\"^.^\""
par BluetoothNetwork.visualizer.streamRedundancyConfigurationVisualizer visualizationSubjectModule "\"^.^\""
par BluetoothNetwork.visualizer.streamRedundancyConfigurationVisualizer tags "\"\""
par BluetoothNetwork.visualizer.streamRedundancyConfigurationVisualizer displayTrees false
par BluetoothNetwork.visualizer.streamRedundancyConfigurationVisualizer lineColor "\"dark\""
par BluetoothNetwork.visualizer.streamRedundancyConfigurationVisualizer lineStyle "\"solid\""
par BluetoothNetwork.visualizer.streamRedundancyConfigurationVisualizer lineWidth 3
par BluetoothNetwork.visualizer.streamRedundancyConfigurationVisualizer lineSmooth false
par BluetoothNetwork.visualizer.streamRedundancyConfigurationVisualizer lineShift 16
par BluetoothNetwork.visualizer.streamRedundancyConfigurationVisualizer lineShiftMode "\"normal\""
par BluetoothNetwork.visualizer.streamRedundancyConfigurationVisualizer lineContactSpacing 3
par BluetoothNetwork.visualizer.streamRedundancyConfigurationVisualizer lineContactMode "\"rectangular\""
attr enum circular,rectangular
par BluetoothNetwork.visualizer.streamRedundancyConfigurationVisualizer streamRedundancyConfiguratorModule "\"streamRedundancyConfigurator\""
par BluetoothNetwork.visualizer.streamRedundancyConfigurationVisualizer streamFilter "\"*\""
par BluetoothNetwork.visualizer.streamRedundancyConfigurationVisualizer zIndex 3
par BluetoothNetwork.visualizer.channelVisualizer typename "\"inet.visualizer.canvas.physicallayer.ChannelCanvasVisualizer\""
par BluetoothNetwork.visualizer.channelVisualizer displayStringTextFormat "\"\""
attr mutable ""
par BluetoothNetwork.visualizer.channelVisualizer visualizationTargetModule "\"^.^\""
par BluetoothNetwork.visualizer.channelVisualizer visualizationSubjectModule "\"^.^\""
par BluetoothNetwork.visualizer.channelVisualizer tags "\"\""
par BluetoothNetwork.visualizer.channelVisualizer displayChannelActivity false
par BluetoothNetwork.visualizer.channelVisualizer nodeFilter "\"*\""
attr mutable ""
par BluetoothNetwork.visualizer.channelVisualizer packetFilter "(omnetpp::cValueHolder)holder: \"*\""
attr mutable ""
par BluetoothNetwork.visualizer.channelVisualizer lineColor "\"blue\""
par BluetoothNetwork.visualizer.channelVisualizer lineStyle "\"solid\""
par BluetoothNetwork.visualizer.channelVisualizer lineWidth 3
par BluetoothNetwork.visualizer.channelVisualizer lineShift 16
par BluetoothNetwork.visualizer.channelVisualizer lineShiftMode "\"normal\""
par BluetoothNetwork.visualizer.channelVisualizer lineContactSpacing 3
par BluetoothNetwork.visualizer.channelVisualizer lineContactMode "\"rectangular\""
attr enum circular,rectangular
par BluetoothNetwork.visualizer.channelVisualizer labelFormat "\"%n\""
par BluetoothNetwork.visualizer.channelVisualizer labelFont "\"<default>, 8px\""
par BluetoothNetwork.visualizer.channelVisualizer labelColor "\"blue\""
par BluetoothNetwork.visualizer.channelVisualizer fadeOutMode "\"realTime\""
attr enum realTime,animationTime,simulationTime
par BluetoothNetwork.visualizer.channelVisualizer fadeOutTime 1s
attr unit s
par BluetoothNetwork.visualizer.channelVisualizer fadeOutAnimationSpeed 0
par BluetoothNetwork.visualizer.channelVisualizer holdAnimationTime 0s
attr unit s
par BluetoothNetwork.visualizer.channelVisualizer zIndex 1
par BluetoothNetwork.visualizer typename "\"inet.visualizer.canvas.integrated.IntegratedCanvasVisualizer\""
par BluetoothNetwork.radioMedium.propagation typename "\"inet.physicallayer.wireless.common.propagation.ConstantSpeedPropagation\""
par BluetoothNetwork.radioMedium.propagation displayStringTextFormat "\"\""
attr mutable ""
par BluetoothNetwork.radioMedium.propagation propagationSpeed 2.99792e+08mps
attr unit mps
par BluetoothNetwork.radioMedium.propagation ignoreMovementDuringTransmission true
par BluetoothNetwork.radioMedium.propagation ignoreMovementDuringPropagation true
par BluetoothNetwork.radioMedium.propagation ignoreMovementDuringReception true
scalar BluetoothNetwork.radioMedium.propagation "Arrival computation count" 195
par BluetoothNetwork.radioMedium.analogModel typename "\"inet.physicallayer.wireless.common.analogmodel.scalar.ScalarMediumAnalogModel\""
par BluetoothNetwork.radioMedium.analogModel displayStringTextFormat "\"\""
attr mutable ""
par BluetoothNetwork.radioMedium.analogModel ignorePartialInterference false
par BluetoothNetwork.radioMedium.backgroundNoise typename "\"inet.physicallayer.wireless.common.backgroundnoise.IsotropicScalarBackgroundNoise\""
par BluetoothNetwork.radioMedium.backgroundNoise displayStringTextFormat "\"\""
attr mutable ""
par BluetoothNetwork.radioMedium.backgroundNoise power -110dBm
attr unit dBm
par BluetoothNetwork.radioMedium.backgroundNoise bandwidth "nan Hz"
attr unit Hz
par BluetoothNetwork.radioMedium.pathLoss typename "\"inet.physicallayer.wireless.common.pathloss.FreeSpacePathLoss\""
par BluetoothNetwork.radioMedium.pathLoss displayStringTextFormat "\"\""
attr mutable ""
par BluetoothNetwork.radioMedium.pathLoss alpha 2
par BluetoothNetwork.radioMedium.pathLoss systemLoss 0dB
attr unit dB
par BluetoothNetwork.radioMedium.mediumLimitCache typename "\"inet.physicallayer.wireless.common.medium.MediumLimitCache\""
par BluetoothNetwork.radioMedium.mediumLimitCache displayStringTextFormat "\"\""
attr mutable ""
par BluetoothNetwork.radioMedium.mediumLimitCache centerFrequency "nan Hz"
attr unit Hz
par BluetoothNetwork.radioMedium.mediumLimitCache maxSpeed "nan mps"
attr unit mps
par BluetoothNetwork.radioMedium.mediumLimitCache maxTransmissionPower "nan W"
attr unit W
par BluetoothNetwork.radioMedium.mediumLimitCache minInterferencePower "nan dBm"
attr unit dBm
par BluetoothNetwork.radioMedium.mediumLimitCache minReceptionPower "nan dBm"
attr unit dBm
par BluetoothNetwork.radioMedium.mediumLimitCache maxAntennaGain 0dB
attr unit dB
par BluetoothNetwork.radioMedium.mediumLimitCache minInterferenceTime 1e-12s
attr unit s
par BluetoothNetwork.radioMedium.mediumLimitCache maxTransmissionDuration 0.01s
attr unit s
par BluetoothNetwork.radioMedium.mediumLimitCache maxCommunicationRange "nan m"
attr unit m
par BluetoothNetwork.radioMedium.mediumLimitCache maxInterferenceRange "nan m"
attr unit m
par BluetoothNetwork.radioMedium.communicationCache typename "\"inet.physicallayer.wireless.common.communicationcache.VectorCommunicationCache\""
par BluetoothNetwork.radioMedium.communicationCache displayStringTextFormat "\"\""
attr mutable ""
par BluetoothNetwork.radioMedium typename "\"inet.physicallayer.wireless.common.medium.RadioMedium\""
par BluetoothNetwork.radioMedium displayStringTextFormat "\"\""
attr mutable ""
par BluetoothNetwork.radioMedium physicalEnvironmentModule "\"physicalEnvironment\""
par BluetoothNetwork.radioMedium signalAnalogRepresentation "\"scalar\""
attr enum unitDisk,scalar,dimensional
par BluetoothNetwork.radioMedium rangeFilter "\"\""
par BluetoothNetwork.radioMedium radioModeFilter false
par BluetoothNetwork.radioMedium listeningFilter false
par BluetoothNetwork.radioMedium macAddressFilter false
par BluetoothNetwork.radioMedium recordTransmissionLog false
par BluetoothNetwork.radioMedium recordReceptionLog false
par BluetoothNetwork.radioMedium sameTransmissionStartTimeCheck "\"error\""
attr enum ignore,warning,error
scalar BluetoothNetwork.radioMedium "transmission count" 39
scalar BluetoothNetwork.radioMedium "signal send count" 195
scalar BluetoothNetwork.radioMedium "reception computation count" 195
scalar BluetoothNetwork.radioMedium "interference computation count" 625
scalar BluetoothNetwork.radioMedium "reception decision computation count" 190
scalar BluetoothNetwork.radioMedium "listening decision computation count" 240
scalar BluetoothNetwork.radioMedium "reception cache hit" 85.501858736059
attr unit %
scalar BluetoothNetwork.radioMedium "interference cache hit" 66.666666666667
attr unit %
scalar BluetoothNetwork.radioMedium "noise cache hit" 0
attr unit %
scalar BluetoothNetwork.radioMedium "snir cache hit" 50
attr unit %
scalar BluetoothNetwork.radioMedium "reception decision cache hit" 50
attr unit %
scalar BluetoothNetwork.radioMedium "reception result cache hit" 0
attr unit %
par BluetoothNetwork.configurator typename "\"inet.networklayer.configurator.ipv4.Ipv4NetworkConfigurator\""
par BluetoothNetwork.configurator displayStringTextFormat "\"\""
attr mutable ""
par BluetoothNetwork.configurator minLinkWeight 0.001
par BluetoothNetwork.configurator configureIsolatedNetworksSeparatly false
par BluetoothNetwork.configurator config "<config>...</config> at content:1"
par BluetoothNetwork.configurator assignAddresses true
par BluetoothNetwork.configurator assignUniqueAddresses true
par BluetoothNetwork.configurator assignDisjunctSubnetAddresses true
par BluetoothNetwork.configurator addStaticRoutes true
par BluetoothNetwork.configurator addDefaultRoutes true
par BluetoothNetwork.configurator addSubnetRoutes true
par BluetoothNetwork.configurator addDirectRoutes true
par BluetoothNetwork.configurator optimizeRoutes true
par BluetoothNetwork.configurator updateRoutes false
par BluetoothNetwork.configurator dumpTopology false
par BluetoothNetwork.configurator dumpLinks false
par BluetoothNetwork.configurator dumpAddresses false
par BluetoothNetwork.configurator dumpRoutes false
par BluetoothNetwork.configurator dumpConfig "\"\""
par BluetoothNetwork.master.radioIn[0].channel typename "\"ned.IdealChannel\""
par BluetoothNetwork.master.mobility typename "\"inet.mobility.static.StationaryMobility\""
par BluetoothNetwork.master.mobility displayStringTextFormat "\"p: %p\\nv: %v\""
attr mutable ""
par BluetoothNetwork.master.mobility subjectModule "\"^\""
par BluetoothNetwork.master.mobility coordinateSystemModule "\"\""
par BluetoothNetwork.master.mobility updateDisplayString true
par BluetoothNetwork.master.mobility constraintAreaMinX "-inf m"
attr unit m
par BluetoothNetwork.master.mobility constraintAreaMinY "-inf m"
attr unit m
par BluetoothNetwork.master.mobility constraintAreaMinZ "-inf m"
attr unit m
par BluetoothNetwork.master.mobility constraintAreaMaxX "inf m"
attr unit m
par BluetoothNetwork.master.mobility constraintAreaMaxY "inf m"
attr unit m
par BluetoothNetwork.master.mobility constraintAreaMaxZ "inf m"
attr unit m
par BluetoothNetwork.master.mobility initialX 400m
attr unit m
par BluetoothNetwork.master.mobility initialY 300m
attr unit m
par BluetoothNetwork.master.mobility initialZ 0m
attr unit m
par BluetoothNetwork.master.mobility initialLatitude "nan deg"
attr unit deg
par BluetoothNetwork.master.mobility initialLongitude "nan deg"
attr unit deg
par BluetoothNetwork.master.mobility initialAltitude 0m
attr unit m
par BluetoothNetwork.master.mobility initialHeading 0deg
attr unit deg
par BluetoothNetwork.master.mobility initialElevation 0deg
attr unit deg
par BluetoothNetwork.master.mobility initialBank 0deg
attr unit deg
par BluetoothNetwork.master.mobility initFromDisplayString true
par BluetoothNetwork.master.mobility updateFromDisplayString true
par BluetoothNetwork.master.interfaceTable typename "\"inet.networklayer.common.InterfaceTable\""
par BluetoothNetwork.master.interfaceTable displayStringTextFormat "\"\""
attr mutable ""
par BluetoothNetwork.master.interfaceTable displayAddresses false
par BluetoothNetwork.master.cb typename "\"inet.common.MessageDispatcher\""
par BluetoothNetwork.master.cb displayStringTextFormat "\"processed %p pk (%l)\""
attr mutable ""
par BluetoothNetwork.master.cb interfaceTableModule "\"BluetoothNetwork.master.interfaceTable\""
par BluetoothNetwork.master.cb forwardServiceRegistration true
par BluetoothNetwork.master.cb forwardProtocolRegistration true
par BluetoothNetwork.master.cb interfaceMapping {}
par BluetoothNetwork.master.cb serviceMapping {}
par BluetoothNetwork.master.cb protocolMapping {}
par BluetoothNetwork.master.bl typename "\"inet.common.MessageDispatcher\""
par BluetoothNetwork.master.bl displayStringTextFormat "\"processed %p pk (%l)\""
attr mutable ""
par BluetoothNetwork.master.bl interfaceTableModule "\"BluetoothNetwork.master.interfaceTable\""
par BluetoothNetwork.master.bl forwardServiceRegistration true
par BluetoothNetwork.master.bl forwardProtocolRegistration true
par BluetoothNetwork.master.bl interfaceMapping {}
par BluetoothNetwork.master.bl serviceMapping {}
par BluetoothNetwork.master.bl protocolMapping {}
par BluetoothNetwork.master.li typename "\"inet.common.MessageDispatcher\""
par BluetoothNetwork.master.li displayStringTextFormat "\"processed %p pk (%l)\""
attr mutable ""
par BluetoothNetwork.master.li interfaceTableModule "\"BluetoothNetwork.master.interfaceTable\""
par BluetoothNetwork.master.li forwardServiceRegistration true
par BluetoothNetwork.master.li forwardProtocolRegistration true
par BluetoothNetwork.master.li interfaceMapping {}
par BluetoothNetwork.master.li serviceMapping {}
par BluetoothNetwork.master.li protocolMapping {}
par BluetoothNetwork.master.lo[0].upperLayerIn.channel typename "\"ned.IdealChannel\""
par BluetoothNetwork.master.lo[0].lo.upperLayerOut.channel typename "\"ned.IdealChannel\""
par BluetoothNetwork.master.lo[0].lo typename "\"inet.linklayer.loopback.Loopback\""
par BluetoothNetwork.master.lo[0].lo displayStringTextFormat "\"\""
attr mutable ""
par BluetoothNetwork.master.lo[0].lo interfaceTableModule "\"BluetoothNetwork.master.interfaceTable\""
par BluetoothNetwork.master.lo[0].lo mtu 4470B
attr unit B
scalar BluetoothNetwork.master.lo[0].lo rcvdPkFromHl:count 0
attr interpolationmode none
attr recordingmode count
attr source packetReceivedFromUpper
attr title "packets received from higher layer, count"
scalar BluetoothNetwork.master.lo[0].lo rcvdPkFromHl:sum(packetBytes) 0
attr interpolationmode none
attr recordingmode sum(packetBytes)
attr source packetReceivedFromUpper
attr title "packets received from higher layer, sum(packetBytes)"
scalar BluetoothNetwork.master.lo[0].lo passedUpPk:count 0
attr interpolationmode none
attr recordingmode count
attr source packetSentToUpper
attr title "packets passed to higher layer, count"
scalar BluetoothNetwork.master.lo[0].lo passedUpPk:sum(packetBytes) 0
attr interpolationmode none
attr recordingmode sum(packetBytes)
attr source packetSentToUpper
attr title "packets passed to higher layer, sum(packetBytes)"
par BluetoothNetwork.master.lo[0] typename "\"inet.linklayer.loopback.LoopbackInterface\""
par BluetoothNetwork.master.lo[0] displayStringTextFormat "\"%a (%i)\\n%m\""
attr mutable ""
par BluetoothNetwork.master.lo[0] recordPcap false
par BluetoothNetwork.master.lo[0] numPcapRecorders 0
par BluetoothNetwork.master.lo[0] interfaceTableModule "\"BluetoothNetwork.master.interfaceTable\""
scalar BluetoothNetwork.master.lo[0] packetDropInterfaceDown:count 0
attr interpolationmode none
attr recordingmode count
attr source packetDropReasonIsInterfaceDown(packetDropped)
attr title "packet drops: interface down, count"
scalar BluetoothNetwork.master.lo[0] packetDropInterfaceDown:sum(packetBytes) 0
attr interpolationmode none
attr recordingmode sum(packetBytes)
attr source packetDropReasonIsInterfaceDown(packetDropped)
attr title "packet drops: interface down, sum(packetBytes)"
scalar BluetoothNetwork.master.lo[0] packetDropNoCarrier:count 0
attr interpolationmode none
attr recordingmode count
attr source packetDropReasonIsNoCarrier(packetDropped)
attr title "packet drops: no carrier, count"
scalar BluetoothNetwork.master.lo[0] packetDropNoCarrier:sum(packetBytes) 0
attr interpolationmode none
attr recordingmode sum(packetBytes)
attr source packetDropReasonIsNoCarrier(packetDropped)
attr title "packet drops: no carrier, sum(packetBytes)"
par BluetoothNetwork.master.wlan[0].radioIn.channel typename "\"ned.IdealChannel\""
par BluetoothNetwork.master.wlan[0].llc.upperLayerOut.channel typename "\"ned.IdealChannel\""
par BluetoothNetwork.master.wlan[0].upperLayerIn.channel typename "\"ned.IdealChannel\""
par BluetoothNetwork.master.wlan[0].mib typename "\"inet.linklayer.ieee80211.mib.Ieee80211Mib\""
par BluetoothNetwork.master.wlan[0].mib displayStringTextFormat "\"\""
attr mutable ""
par BluetoothNetwork.master.wlan[0].llc typename "\"inet.linklayer.ieee80211.llc.Ieee80211LlcLpd\""
par BluetoothNetwork.master.wlan[0].llc displayStringTextFormat "\"\""
attr mutable ""
par BluetoothNetwork.master.wlan[0].llc registerProtocol false
par BluetoothNetwork.master.wlan[0].agent typename "\"inet.linklayer.ieee80211.mgmt.Ieee80211AgentSta\""
par BluetoothNetwork.master.wlan[0].agent displayStringTextFormat "\"\""
attr mutable ""
par BluetoothNetwork.master.wlan[0].agent interfaceTableModule "\"BluetoothNetwork.master.interfaceTable\""
par BluetoothNetwork.master.wlan[0].agent mibModule "\"BluetoothNetwork.master.wlan[0].mib\""
par BluetoothNetwork.master.wlan[0].agent activeScan true
par BluetoothNetwork.master.wlan[0].agent channelsToScan "\"\""
par BluetoothNetwork.master.wlan[0].agent probeDelay 0.1s
attr unit s
par BluetoothNetwork.master.wlan[0].agent minChannelTime 0.15s
attr unit s
par BluetoothNetwork.master.wlan[0].agent maxChannelTime 0.3s
attr unit s
par BluetoothNetwork.master.wlan[0].agent authenticationTimeout 5s
attr unit s
par BluetoothNetwork.master.wlan[0].agent associationTimeout 5s
attr unit s
par BluetoothNetwork.master.wlan[0].agent startingTime -1s
attr unit s
par BluetoothNetwork.master.wlan[0].agent defaultSsid "\"\""
scalar BluetoothNetwork.master.wlan[0].agent dropConfirm:count 6
attr recordingmode count
attr title "dropped confirms, count"
scalar BluetoothNetwork.master.wlan[0].agent acceptConfirm:count 0
attr recordingmode count
attr title "accepted confirms, count"
scalar BluetoothNetwork.master.wlan[0].agent sentRequest:count 7
attr recordingmode count
attr title "sent requests, count"
par BluetoothNetwork.master.wlan[0].mgmt typename "\"inet.linklayer.ieee80211.mgmt.Ieee80211MgmtSta\""
par BluetoothNetwork.master.wlan[0].mgmt displayStringTextFormat "\"\""
attr mutable ""
par BluetoothNetwork.master.wlan[0].mgmt interfaceTableModule "\"BluetoothNetwork.master.interfaceTable\""
par BluetoothNetwork.master.wlan[0].mgmt numChannels 1
par BluetoothNetwork.master.wlan[0].mgmt mibModule "\"BluetoothNetwork.master.wlan[0].mib\""
par BluetoothNetwork.master.wlan[0].mgmt macModule "\"BluetoothNetwork.master.wlan[0].mac\""
par BluetoothNetwork.master.wlan[0].mac.dcf.channelAccess.pendingQueue typename "\"inet.linklayer.ieee80211.mac.queue.PendingQueue\""
par BluetoothNetwork.master.wlan[0].mac.dcf.channelAccess.pendingQueue displayStringTextFormat "\"contains %p pk (%l) pushed %u\\npulled %o removed %r dropped %d\""
attr mutable ""
par BluetoothNetwork.master.wlan[0].mac.dcf.channelAccess.pendingQueue packetCapacity 100
par BluetoothNetwork.master.wlan[0].mac.dcf.channelAccess.pendingQueue dataCapacity -1b
attr unit b
par BluetoothNetwork.master.wlan[0].mac.dcf.channelAccess.pendingQueue dropperClass "\"inet::queueing::PacketAtCollectionEndDropper\""
par BluetoothNetwork.master.wlan[0].mac.dcf.channelAccess.pendingQueue comparatorClass "\"inet::ieee80211::MgmtOverDataComparator\""
par BluetoothNetwork.master.wlan[0].mac.dcf.channelAccess.pendingQueue bufferModule "\"\""
scalar BluetoothNetwork.master.wlan[0].mac.dcf.channelAccess.pendingQueue queueLength:last 0
attr autoWarmupFilter false
attr interpolationmode sample-hold
attr recordingmode last
attr source "warmup(atomic(constant0(packetPushEnded) + count(packetPushStarted) - count(packetPulled) - count(packetRemoved) - count(packetDropped)))"
attr title "queue length, last"
attr unit pk
scalar BluetoothNetwork.master.wlan[0].mac.dcf.channelAccess.pendingQueue queueLength:max 1
attr autoWarmupFilter false
attr interpolationmode sample-hold
attr recordingmode max
attr source "warmup(atomic(constant0(packetPushEnded) + count(packetPushStarted) - count(packetPulled) - count(packetRemoved) - count(packetDropped)))"
attr title "queue length, max"
attr unit pk
scalar BluetoothNetwork.master.wlan[0].mac.dcf.channelAccess.pendingQueue queueLength:timeavg 0
attr autoWarmupFilter false
attr interpolationmode sample-hold
attr recordingmode timeavg
attr source "warmup(atomic(constant0(packetPushEnded) + count(packetPushStarted) - count(packetPulled) - count(packetRemoved) - count(packetDropped)))"
attr title "queue length, timeavg"
attr unit pk
scalar BluetoothNetwork.master.wlan[0].mac.dcf.channelAccess.pendingQueue queueBitLength:last 0
attr autoWarmupFilter false
attr interpolationmode sample-hold
attr recordingmode last
attr source "warmup(atomic(constant0(packetPushEnded) + sum(packetLength(packetPushStarted)) - sum(packetLength(packetPulled)) - sum(packetLength(packetRemoved)) - sum(packetLength(packetDropped))))"
attr title "queue bit length, last"
attr unit b
scalar BluetoothNetwork.master.wlan[0].mac.dcf.channelAccess.pendingQueue queueBitLength:max 320
attr autoWarmupFilter false
attr interpolationmode sample-hold
attr recordingmode max
attr source "warmup(atomic(constant0(packetPushEnded) + sum(packetLength(packetPushStarted)) - sum(packetLength(packetPulled)) - sum(packetLength(packetRemoved)) - sum(packetLength(packetDropped))))"
attr title "queue bit length, max"
attr unit b
scalar BluetoothNetwork.master.wlan[0].mac.dcf.channelAccess.pendingQueue queueBitLength:timeavg 0
attr autoWarmupFilter false
attr interpolationmode sample-hold
attr recordingmode timeavg
attr source "warmup(atomic(constant0(packetPushEnded) + sum(packetLength(packetPushStarted)) - sum(packetLength(packetPulled)) - sum(packetLength(packetRemoved)) - sum(packetLength(packetDropped))))"
attr title "queue bit length, timeavg"
attr unit b
statistic BluetoothNetwork.master.wlan[0].mac.dcf.channelAccess.pendingQueue queueingTime:histogram
field count 7
field mean 0
field stddev 0
field min 0
field max 0
field sum 0
field sqrsum 0
attr interpolationmode none
attr recordingmode histogram
attr source queueingTime(packetPulled)
attr title "queueing times"
attr unit s
bin	-inf	0
bin	-0.5	0
bin	-0.48	0
bin	-0.46	0
bin	-0.44	0
bin	-0.42	0
bin	-0.4	0
bin	-0.38	0
bin	-0.36	0
bin	-0.34	0
bin	-0.32	0
bin	-0.3	0
bin	-0.28	0
bin	-0.26	0
bin	-0.24	0
bin	-0.22	0
bin	-0.2	0
bin	-0.18	0
bin	-0.16	0
bin	-0.14	0
bin	-0.12	0
bin	-0.1	0
bin	-0.08	0
bin	-0.06	0
bin	-0.04	0
bin	-0.02	0
bin	0	7
bin	0.02	0
bin	0.04	0
bin	0.06	0
bin	0.08	0
bin	0.1	0
bin	0.12	0
bin	0.14	0
bin	0.16	0
bin	0.18	0
bin	0.2	0
bin	0.22	0
bin	0.24	0
bin	0.26	0
bin	0.28	0
bin	0.3	0
bin	0.32	0
bin	0.34	0
bin	0.36	0
bin	0.38	0
bin	0.4	0
bin	0.42	0
bin	0.44	0
bin	0.46	0
bin	0.48	0
bin	0.5	0
scalar BluetoothNetwork.master.wlan[0].mac.dcf.channelAccess.pendingQueue outgoingPackets:count 7
attr recordingmode count
attr source packetPulled
attr title "outgoing packets, count"
attr unit pk
scalar BluetoothNetwork.master.wlan[0].mac.dcf.channelAccess.pendingQueue outgoingPacketLengths:sum 2240
attr interpolationmode none
attr recordingmode sum
attr source packetLength(packetPulled)
attr title "outgoing packet lengths, sum"
attr unit b
statistic BluetoothNetwork.master.wlan[0].mac.dcf.channelAccess.pendingQueue outgoingPacketLengths:histogram
field count 7
field mean 320
field stddev 0
field min 320
field max 320
field sum 2240
field sqrsum 716800
attr interpolationmode none
attr recordingmode histogram
attr source packetLength(packetPulled)
attr title "outgoing packet lengths"
attr unit b
bin	-inf	0
bin	319	0
bin	320	7
bin	321	0
statistic BluetoothNetwork.master.wlan[0].mac.dcf.channelAccess.pendingQueue flowQueueingTime:histogram
field count 0
field mean -nan(ind)
field stddev nan
field min nan
field max nan
field sum 0
field sqrsum 0
attr interpolationmode none
attr recordingmode histogram
attr source queueingTime(demuxFlow(packetPulled))
attr title "flow queueing times"
attr unit s
bin	-inf	0
bin	0	0
bin	1	0
scalar BluetoothNetwork.master.wlan[0].mac.dcf.channelAccess.pendingQueue incomingPackets:count 7
attr recordingmode count
attr source packetPushStarted
attr title "incoming packets, count"
attr unit pk
scalar BluetoothNetwork.master.wlan[0].mac.dcf.channelAccess.pendingQueue incomingPacketLengths:sum 2240
attr interpolationmode none
attr recordingmode sum
attr source packetLength(packetPushStarted)
attr title "incoming packet lengths, sum"
attr unit b
statistic BluetoothNetwork.master.wlan[0].mac.dcf.channelAccess.pendingQueue incomingPacketLengths:histogram
field count 7
field mean 320
field stddev 0
field min 320
field max 320
field sum 2240
field sqrsum 716800
attr interpolationmode none
attr recordingmode histogram
attr source packetLength(packetPushStarted)
attr title "incoming packet lengths"
attr unit b
bin	-inf	0
bin	319	0
bin	320	7
bin	321	0
scalar BluetoothNetwork.master.wlan[0].mac.dcf.channelAccess.pendingQueue droppedPacketsQueueOverflow:count 0
attr interpolationmode none
attr recordingmode count
attr source packetDropReasonIsQueueOverflow(packetDropped)
attr title "dropped packets: queue overflow, count"
attr unit pk
[...]
attr title "packet drops: no carrier, count"
scalar BluetoothNetwork.attacker2.wlan[0] packetDropNoCarrier:sum(packetBytes) 0
attr interpolationmode none
attr recordingmode sum(packetBytes)
attr source packetDropReasonIsNoCarrier(packetDropped)
attr title "packet drops: no carrier, sum(packetBytes)"
par BluetoothNetwork.attacker2.ipv4.transportIn.channel typename "\"ned.IdealChannel\""
par BluetoothNetwork.attacker2.ipv4.up.out[0].channel typename "\"ned.IdealChannel\""
par BluetoothNetwork.attacker2.ipv4.lp.out[2].channel typename "\"ned.IdealChannel\""
par BluetoothNetwork.attacker2.ipv4.ifIn.channel typename "\"ned.IdealChannel\""
par BluetoothNetwork.attacker2.ipv4.configurator typename "\"inet.networklayer.configurator.ipv4.Ipv4NodeConfigurator\""
par BluetoothNetwork.attacker2.ipv4.configurator displayStringTextFormat "\"\""
attr mutable ""
par BluetoothNetwork.attacker2.ipv4.configurator interfaceTableModule "\"BluetoothNetwork.attacker2.interfaceTable\""
par BluetoothNetwork.attacker2.ipv4.configurator routingTableModule "\"BluetoothNetwork.attacker2.ipv4.routingTable\""
par BluetoothNetwork.attacker2.ipv4.configurator networkConfiguratorModule "\"configurator\""
par BluetoothNetwork.attacker2.ipv4.configurator configureRoutingTable true
par BluetoothNetwork.attacker2.ipv4.routingTable typename "\"inet.networklayer.ipv4.Ipv4RoutingTable\""
par BluetoothNetwork.attacker2.ipv4.routingTable displayStringTextFormat "\"\""
attr mutable ""
par BluetoothNetwork.attacker2.ipv4.routingTable interfaceTableModule "\"BluetoothNetwork.attacker2.interfaceTable\""
par BluetoothNetwork.attacker2.ipv4.routingTable routerId "\"auto\""
par BluetoothNetwork.attacker2.ipv4.routingTable netmaskRoutes "\"*\""
par BluetoothNetwork.attacker2.ipv4.routingTable forwarding false
par BluetoothNetwork.attacker2.ipv4.routingTable multicastForwarding false
par BluetoothNetwork.attacker2.ipv4.routingTable useAdminDist false
par BluetoothNetwork.attacker2.ipv4.routingTable routingFile "\"\""
par BluetoothNetwork.attacker2.ipv4.natTable typename "\"inet.networklayer.ipv4.Ipv4NatTable\""
par BluetoothNetwork.attacker2.ipv4.natTable displayStringTextFormat "\"\""
attr mutable ""
par BluetoothNetwork.attacker2.ipv4.natTable networkProtocolModule "\"^.ip\""
par BluetoothNetwork.attacker2.ipv4.natTable config "<config/> at content:1"
par BluetoothNetwork.attacker2.ipv4.up typename "\"inet.common.MessageDispatcher\""
par BluetoothNetwork.attacker2.ipv4.up displayStringTextFormat "\"processed %p pk (%l)\""
attr mutable ""
par BluetoothNetwork.attacker2.ipv4.up interfaceTableModule "\"BluetoothNetwork.attacker2.interfaceTable\""
par BluetoothNetwork.attacker2.ipv4.up forwardServiceRegistration true
par BluetoothNetwork.attacker2.ipv4.up forwardProtocolRegistration true
par BluetoothNetwork.attacker2.ipv4.up interfaceMapping {}
par BluetoothNetwork.attacker2.ipv4.up serviceMapping {}
par BluetoothNetwork.attacker2.ipv4.up protocolMapping {}
par BluetoothNetwork.attacker2.ipv4.igmp typename "\"inet.networklayer.ipv4.Igmpv2\""
par BluetoothNetwork.attacker2.ipv4.igmp displayStringTextFormat "\"\""
attr mutable ""
par BluetoothNetwork.attacker2.ipv4.igmp interfaceTableModule "\"BluetoothNetwork.attacker2.interfaceTable\""
par BluetoothNetwork.attacker2.ipv4.igmp routingTableModule "\"BluetoothNetwork.attacker2.ipv4.routingTable\""
par BluetoothNetwork.attacker2.ipv4.igmp checksumMode "\"declared\""
attr enum declared,computed
par BluetoothNetwork.attacker2.ipv4.igmp enabled true
par BluetoothNetwork.attacker2.ipv4.igmp robustnessVariable 2
par BluetoothNetwork.attacker2.ipv4.igmp queryInterval 125s
attr unit s
par BluetoothNetwork.attacker2.ipv4.igmp queryResponseInterval 10s
attr unit s
par BluetoothNetwork.attacker2.ipv4.igmp groupMembershipInterval 260s
attr unit s
par BluetoothNetwork.attacker2.ipv4.igmp otherQuerierPresentInterval 255s
attr unit s
par BluetoothNetwork.attacker2.ipv4.igmp startupQueryInterval 31.25s
attr unit s
par BluetoothNetwork.attacker2.ipv4.igmp startupQueryCount 2
par BluetoothNetwork.attacker2.ipv4.igmp lastMemberQueryInterval 1s
attr unit s
par BluetoothNetwork.attacker2.ipv4.igmp lastMemberQueryCount 2
par BluetoothNetwork.attacker2.ipv4.igmp unsolicitedReportInterval 10s
attr unit s
par BluetoothNetwork.attacker2.ipv4.icmp typename "\"inet.networklayer.ipv4.Icmp\""
par BluetoothNetwork.attacker2.ipv4.icmp displayStringTextFormat "\"\""
attr mutable ""
par BluetoothNetwork.attacker2.ipv4.icmp interfaceTableModule "\"BluetoothNetwork.attacker2.interfaceTable\""
par BluetoothNetwork.attacker2.ipv4.icmp routingTableModule "\"BluetoothNetwork.attacker2.ipv4.routingTable\""
par BluetoothNetwork.attacker2.ipv4.icmp checksumMode "\"declared\""
attr enum declared,computed
attr mutable ""
par BluetoothNetwork.attacker2.ipv4.icmp quoteLength 8B
attr mutable ""
attr unit B
par BluetoothNetwork.attacker2.ipv4.mp typename "\"inet.common.MessageDispatcher\""
par BluetoothNetwork.attacker2.ipv4.mp displayStringTextFormat "\"processed %p pk (%l)\""
attr mutable ""
par BluetoothNetwork.attacker2.ipv4.mp interfaceTableModule "\"BluetoothNetwork.attacker2.interfaceTable\""
par BluetoothNetwork.attacker2.ipv4.mp forwardServiceRegistration true
par BluetoothNetwork.attacker2.ipv4.mp forwardProtocolRegistration true
par BluetoothNetwork.attacker2.ipv4.mp interfaceMapping {}
par BluetoothNetwork.attacker2.ipv4.mp serviceMapping {}
par BluetoothNetwork.attacker2.ipv4.mp protocolMapping {}
par BluetoothNetwork.attacker2.ipv4.ip typename "\"inet.networklayer.ipv4.Ipv4\""
par BluetoothNetwork.attacker2.ipv4.ip displayStringTextFormat "\"\""
attr mutable ""
par BluetoothNetwork.attacker2.ipv4.ip interfaceTableModule "\"BluetoothNetwork.attacker2.interfaceTable\""
par BluetoothNetwork.attacker2.ipv4.ip routingTableModule "\"BluetoothNetwork.attacker2.ipv4.routingTable\""
par BluetoothNetwork.attacker2.ipv4.ip arpModule "\"BluetoothNetwork.attacker2.ipv4.arp\""
par BluetoothNetwork.attacker2.ipv4.ip icmpModule "\"BluetoothNetwork.attacker2.ipv4.icmp\""
par BluetoothNetwork.attacker2.ipv4.ip checksumMode "\"declared\""
attr enum declared,computed
par BluetoothNetwork.attacker2.ipv4.ip timeToLive 32
par BluetoothNetwork.attacker2.ipv4.ip multicastTimeToLive 32
par BluetoothNetwork.attacker2.ipv4.ip fragmentTimeout 60s
attr unit s
par BluetoothNetwork.attacker2.ipv4.ip limitedBroadcast false
par BluetoothNetwork.attacker2.ipv4.ip directBroadcastInterfaces "\"\""
par BluetoothNetwork.attacker2.ipv4.ip enableLocalOutMulticastRouting false
par BluetoothNetwork.attacker2.ipv4.ip enableTimestampOption false
par BluetoothNetwork.attacker2.ipv4.ip maxLifetime -1s
attr unit s
scalar BluetoothNetwork.attacker2.ipv4.ip packetDropAddressResolutionFailed:count 0
attr interpolationmode none
attr recordingmode count
attr source packetDropReasonIsAddressResolutionFailed(packetDropped)
attr title "packet drop: address resolution failed, count"
scalar BluetoothNetwork.attacker2.ipv4.ip packetDropAddressResolutionFailed:sum(packetBytes) 0
attr interpolationmode none
attr recordingmode sum(packetBytes)
attr source packetDropReasonIsAddressResolutionFailed(packetDropped)
attr title "packet drop: address resolution failed, sum(packetBytes)"
scalar BluetoothNetwork.attacker2.ipv4.ip packetDropHopLimitReached:count 0
attr interpolationmode none
attr recordingmode count
attr source packetDropReasonIsHopLimitReached(packetDropped)
attr title "packet drop: hop limit reached, count"
scalar BluetoothNetwork.attacker2.ipv4.ip packetDropHopLimitReached:sum(packetBytes) 0
attr interpolationmode none
attr recordingmode sum(packetBytes)
attr source packetDropReasonIsHopLimitReached(packetDropped)
attr title "packet drop: hop limit reached, sum(packetBytes)"
scalar BluetoothNetwork.attacker2.ipv4.ip packetDropForwardingDisabled:count 0
attr interpolationmode none
attr recordingmode count
attr source packetDropReasonIsForwardingDisabled(packetDropped)
attr title "packet drop: forwarding disabled, count"
scalar BluetoothNetwork.attacker2.ipv4.ip packetDropForwardingDisabled:sum(packetBytes) 0
attr interpolationmode none
attr recordingmode sum(packetBytes)
attr source packetDropReasonIsForwardingDisabled(packetDropped)
attr title "packet drop: forwarding disabled, sum(packetBytes)"
scalar BluetoothNetwork.attacker2.ipv4.ip packetDropLifetimeExpired:count 0
attr interpolationmode none
attr recordingmode count
attr source packetDropReasonIsLifetimeExpired(packetDropped)
attr title "packet drop: lifetime expired, count"
scalar BluetoothNetwork.attacker2.ipv4.ip packetDropLifetimeExpired:sum(packetBytes) 0
attr interpolationmode none
attr recordingmode sum(packetBytes)
attr source packetDropReasonIsLifetimeExpired(packetDropped)
attr title "packet drop: lifetime expired, sum(packetBytes)"
scalar BluetoothNetwork.attacker2.ipv4.ip packetDropNoInterfaceFound:count 0
attr interpolationmode none
attr recordingmode count
attr source packetDropReasonIsNoInterfaceFound(packetDropped)
attr title "packet drop: no interface found, count"
scalar BluetoothNetwork.attacker2.ipv4.ip packetDropNoInterfaceFound:sum(packetBytes) 0
attr interpolationmode none
attr recordingmode sum(packetBytes)
attr source packetDropReasonIsNoInterfaceFound(packetDropped)
attr title "packet drop: no interface found, sum(packetBytes)"
scalar BluetoothNetwork.attacker2.ipv4.ip packetDropNoRouteFound:count 0
attr interpolationmode none
attr recordingmode count
attr source packetDropReasonIsNoRouteFound(packetDropped)
attr title "packet drop: no route found, count"
scalar BluetoothNetwork.attacker2.ipv4.ip packetDropNoRouteFound:sum(packetBytes) 0
attr interpolationmode none
attr recordingmode sum(packetBytes)
attr source packetDropReasonIsNoRouteFound(packetDropped)
attr title "packet drop: no route found, sum(packetBytes)"
scalar BluetoothNetwork.attacker2.ipv4.ip packetDropUndefined:count 0
attr interpolationmode none
attr recordingmode count
attr source packetDropReasonIsUndefined(packetDropped)
attr title "packet drop: undefined, count"
scalar BluetoothNetwork.attacker2.ipv4.ip packetDropUndefined:sum(packetBytes) 0
attr interpolationmode none
attr recordingmode sum(packetBytes)
attr source packetDropReasonIsUndefined(packetDropped)
attr title "packet drop: undefined, sum(packetBytes)"
par BluetoothNetwork.attacker2.ipv4.arp typename "\"inet.networklayer.arp.ipv4.Arp\""
par BluetoothNetwork.attacker2.ipv4.arp displayStringTextFormat "\"\""
attr mutable ""
par BluetoothNetwork.attacker2.ipv4.arp interfaceTableModule "\"BluetoothNetwork.attacker2.interfaceTable\""
par BluetoothNetwork.attacker2.ipv4.arp routingTableModule "\"BluetoothNetwork.attacker2.ipv4.routingTable\""
par BluetoothNetwork.attacker2.ipv4.arp retryTimeout 1s
attr unit s
par BluetoothNetwork.attacker2.ipv4.arp retryCount 3
par BluetoothNetwork.attacker2.ipv4.arp cacheTimeout 120s
attr unit s
par BluetoothNetwork.attacker2.ipv4.arp proxyArpInterfaces "\"\""
scalar BluetoothNetwork.attacker2.ipv4.arp arpReplySent:count 0
attr recordingmode count
attr source arpReplySent
attr title "ARP replies sent, count"
scalar BluetoothNetwork.attacker2.ipv4.arp arpReplySent:sum(packetBytes) 0
attr recordingmode sum(packetBytes)
attr source arpReplySent
attr title "ARP replies sent, sum(packetBytes)"
scalar BluetoothNetwork.attacker2.ipv4.arp arpRequestSent:count 0
attr recordingmode count
attr source arpRequestSent
attr title "ARP request sent, count"
scalar BluetoothNetwork.attacker2.ipv4.arp arpRequestSent:sum(packetBytes) 0
attr recordingmode sum(packetBytes)
attr source arpRequestSent
attr title "ARP request sent, sum(packetBytes)"
scalar BluetoothNetwork.attacker2.ipv4.arp arpResolutionFailed:count 0
attr recordingmode count
attr title "ARP failed resolutions, count"
scalar BluetoothNetwork.attacker2.ipv4.arp arpResolutionCompleted:count 0
attr recordingmode count
attr title "ARP completed resolutions, count"
scalar BluetoothNetwork.attacker2.ipv4.arp arpResolutionInitiated:count 0
attr recordingmode count
attr title "ARP initiated resolutions, count"
par BluetoothNetwork.attacker2.ipv4.lp typename "\"inet.common.MessageDispatcher\""
par BluetoothNetwork.attacker2.ipv4.lp displayStringTextFormat "\"processed %p pk (%l)\""
attr mutable ""
par BluetoothNetwork.attacker2.ipv4.lp interfaceTableModule "\"BluetoothNetwork.attacker2.interfaceTable\""
par BluetoothNetwork.attacker2.ipv4.lp forwardServiceRegistration true
par BluetoothNetwork.attacker2.ipv4.lp forwardProtocolRegistration true
par BluetoothNetwork.attacker2.ipv4.lp interfaceMapping {}
par BluetoothNetwork.attacker2.ipv4.lp serviceMapping {}
par BluetoothNetwork.attacker2.ipv4.lp protocolMapping {}
par BluetoothNetwork.attacker2.ipv4 typename "\"inet.networklayer.ipv4.Ipv4NetworkLayer\""
par BluetoothNetwork.attacker2.ipv4 displayStringTextFormat "\"%i\""
attr mutable ""
par BluetoothNetwork.attacker2.ipv4 forwarding false
par BluetoothNetwork.attacker2.ipv4 multicastForwarding false
par BluetoothNetwork.attacker2.ipv4 hasIpsec false
par BluetoothNetwork.attacker2.ipv4 interfaceTableModule "\"BluetoothNetwork.attacker2.interfaceTable\""
par BluetoothNetwork.attacker2.nl typename "\"inet.common.MessageDispatcher\""
par BluetoothNetwork.attacker2.nl displayStringTextFormat "\"processed %p pk (%l)\""
attr mutable ""
par BluetoothNetwork.attacker2.nl interfaceTableModule "\"BluetoothNetwork.attacker2.interfaceTable\""
par BluetoothNetwork.attacker2.nl forwardServiceRegistration true
par BluetoothNetwork.attacker2.nl forwardProtocolRegistration true
par BluetoothNetwork.attacker2.nl interfaceMapping {}
par BluetoothNetwork.attacker2.nl serviceMapping {}
par BluetoothNetwork.attacker2.nl protocolMapping {}
par BluetoothNetwork.attacker2.udp typename "\"inet.transportlayer.udp.Udp\""
par BluetoothNetwork.attacker2.udp displayStringTextFormat "\"\""
attr mutable ""
par BluetoothNetwork.attacker2.udp interfaceTableModule "\"BluetoothNetwork.attacker2.interfaceTable\""
par BluetoothNetwork.attacker2.udp icmpModule "\"^.ipv4.icmp\""
par BluetoothNetwork.attacker2.udp icmpv6Module "\"^.ipv6.icmpv6\""
par BluetoothNetwork.attacker2.udp checksumMode "\"declared\""
attr enum disabled,declared,computed
par BluetoothNetwork.attacker2.udp defaultMulticastLoop true
scalar BluetoothNetwork.attacker2.udp packetReceived:count 0
attr interpolationmode none
attr recordingmode count
attr source packetReceived
attr title "packets received, count"
scalar BluetoothNetwork.attacker2.udp packetReceived:sum(packetBytes) 0
attr interpolationmode none
attr recordingmode sum(packetBytes)
attr source packetReceived
attr title "packets received, sum(packetBytes)"
scalar BluetoothNetwork.attacker2.udp packetSent:count 0
attr interpolationmode none
attr recordingmode count
attr source packetSent
attr title "packets sent, count"
scalar BluetoothNetwork.attacker2.udp packetSent:sum(packetBytes) 0
attr interpolationmode none
attr recordingmode sum(packetBytes)
attr source packetSent
attr title "packets sent, sum(packetBytes)"
scalar BluetoothNetwork.attacker2.udp passedUpPk:count 0
attr interpolationmode none
attr recordingmode count
attr source packetSentToUpper
attr title "packets passed up, count"
scalar BluetoothNetwork.attacker2.udp droppedPkWrongPort:count 0
attr interpolationmode none
attr recordingmode count
attr source packetDropReasonIsNoPortFound(packetDropped)
attr title "packets dropped (wrong port), count"
scalar BluetoothNetwork.attacker2.udp droppedPkBadChecksum:count 0
attr interpolationmode none
attr recordingmode count
attr source packetDropReasonIsIncorrectlyReceived(packetDropped)
attr title "packets dropped (checksum error), count"
par BluetoothNetwork.attacker2.tcp typename "\"inet.transportlayer.tcp.Tcp\""
par BluetoothNetwork.attacker2.tcp displayStringTextFormat "\"\""
attr mutable ""
par BluetoothNetwork.attacker2.tcp checksumMode "\"declared\""
attr enum declared,computed
par BluetoothNetwork.attacker2.tcp advertisedWindow 7504
par BluetoothNetwork.attacker2.tcp delayedAcksEnabled false
par BluetoothNetwork.attacker2.tcp nagleEnabled true
par BluetoothNetwork.attacker2.tcp limitedTransmitEnabled false
par BluetoothNetwork.attacker2.tcp increasedIWEnabled false
par BluetoothNetwork.attacker2.tcp sackSupport false
par BluetoothNetwork.attacker2.tcp windowScalingSupport false
par BluetoothNetwork.attacker2.tcp windowScalingFactor -1
par BluetoothNetwork.attacker2.tcp timestampSupport false
par BluetoothNetwork.attacker2.tcp mss 536
par BluetoothNetwork.attacker2.tcp msl 120s
attr unit s
par BluetoothNetwork.attacker2.tcp tcpAlgorithmClass "\"TcpReno\""
attr examples TcpVegas,TcpWestwood,DcTcp,TcpNewReno,TcpReno,TcpTahoe,TcpNoCongestionControl
par BluetoothNetwork.attacker2.tcp dupthresh 3
par BluetoothNetwork.attacker2.tcp initialSsthresh 4294967295
par BluetoothNetwork.attacker2.tcp stopOperationExtraTime 0s
attr unit s
par BluetoothNetwork.attacker2.tcp stopOperationTimeout 2s
attr unit s
par BluetoothNetwork.attacker2.tcp ecnWillingness false
par BluetoothNetwork.attacker2.tcp dctcpGamma 0.0625
par BluetoothNetwork.attacker2.tn typename "\"inet.common.MessageDispatcher\""
par BluetoothNetwork.attacker2.tn displayStringTextFormat "\"processed %p pk (%l)\""
attr mutable ""
par BluetoothNetwork.attacker2.tn interfaceTableModule "\"BluetoothNetwork.attacker2.interfaceTable\""
par BluetoothNetwork.attacker2.tn forwardServiceRegistration true
par BluetoothNetwork.attacker2.tn forwardProtocolRegistration true
par BluetoothNetwork.attacker2.tn interfaceMapping {}
par BluetoothNetwork.attacker2.tn serviceMapping {}
par BluetoothNetwork.attacker2.tn protocolMapping {}
par BluetoothNetwork.attacker2.at typename "\"inet.common.MessageDispatcher\""
par BluetoothNetwork.attacker2.at displayStringTextFormat "\"processed %p pk (%l)\""
attr mutable ""
par BluetoothNetwork.attacker2.at interfaceTableModule "\"BluetoothNetwork.attacker2.interfaceTable\""
par BluetoothNetwork.attacker2.at forwardServiceRegistration true
par BluetoothNetwork.attacker2.at forwardProtocolRegistration true
par BluetoothNetwork.attacker2.at interfaceMapping {}
par BluetoothNetwork.attacker2.at serviceMapping {}
par BluetoothNetwork.attacker2.at protocolMapping {}
par BluetoothNetwork.attacker2 typename "\"simulations.AttackerNode\""
par BluetoothNetwork.attacker2 displayStringTextFormat "\"\""
attr mutable ""
par BluetoothNetwork.attacker2 hasStatus false
par BluetoothNetwork.attacker2 hasEnvironment false
par BluetoothNetwork.attacker2 osgModel "\"\""
par BluetoothNetwork.attacker2 osgModelColor "\"\""
par BluetoothNetwork.attacker2 canvasImage "\"\""
par BluetoothNetwork.attacker2 canvasImageColor "\"\""
par BluetoothNetwork.attacker2 recordPcap false
par BluetoothNetwork.attacker2 numPcapRecorders 0
par BluetoothNetwork.attacker2 numLoInterfaces 1
par BluetoothNetwork.attacker2 numWlanInterfaces 1
par BluetoothNetwork.attacker2 numEthInterfaces 0
par BluetoothNetwork.attacker2 numPppInterfaces 0
par BluetoothNetwork.attacker2 numTunInterfaces 0
par BluetoothNetwork.attacker2 numVirtInterfaces 0
par BluetoothNetwork.attacker2 fcsMode "\"declared\""
attr enum declared,computed
par BluetoothNetwork.attacker2 hasIpv4 true
par BluetoothNetwork.attacker2 hasIpv6 false
par BluetoothNetwork.attacker2 hasGn false
par BluetoothNetwork.attacker2 forwarding false
par BluetoothNetwork.attacker2 multicastForwarding false
par BluetoothNetwork.attacker2 hasUdp true
par BluetoothNetwork.attacker2 hasTcp true
par BluetoothNetwork.attacker2 hasSctp false
par BluetoothNetwork.attacker2 hasQuic false
par BluetoothNetwork.attacker2 numApps 0
par BluetoothNetwork typename "\"simulations.BluetoothNetwork\""

