version 3
run Scenario1_Baseline-0-20260321-23:59:46-19252
attr configname Scenario1_Baseline
attr datetime 20260321-23:59:46
attr datetimef 20260321-235946
attr experiment Scenario1_Baseline
attr inifile omnetpp.ini
attr iterationvars ""
attr iterationvarsd ""
attr iterationvarsf ""
attr measurement ""
attr network BluetoothNetwork
attr processid 19252
attr repetition 0
attr replication #0
attr resultdir results
attr runnumber 0
attr seedset 0
config image-path ../../../Downloads/omnetpp-6.3.0-windows-x86_64/omnetpp-6.3.0/samples/inet4.6/images
config description "Baseline: normal piconet, no attacker active"
config *.attacker1.numApps 0
config *.attacker2.numApps 0
config network BluetoothNetwork
config *.**.wlan[0].radio.receiver.energyDetection -85dBm
config *.**.wlan[0].radio.receiver.sensitivity -85dBm
config sim-time-limit 60s
config **.scalar-recording true
config **.vector-recording true
config *.visualizer.*.displayCommunicationRange true
config *.visualizer.*.displayInterferenceRange true
config *.visualizer.*.displaySignals true
config *.radioMedium.typename RadioMedium
config *.radioMedium.communicationRange 15m
config *.radioMedium.interferenceRange 25m
config *.master.**.wlan[0].typename Ieee80211Interface
config *.master.**.wlan[0].radio.transmitter.power 1mW
config *.master.**.wlan[0].bitrate 2Mbps
config *.slave*.**.wlan[0].typename Ieee80211Interface
config *.slave*.**.wlan[0].radio.transmitter.power 1mW
config *.slave*.**.wlan[0].bitrate 2Mbps
config *.master.mobility.initialX 400m
config *.master.mobility.initialY 300m
config *.slave1.mobility.initialX 250m
config *.slave1.mobility.initialY 200m
config *.slave2.mobility.initialX 550m
config *.slave2.mobility.initialY 200m
config *.slave3.mobility.initialX 400m
config *.slave3.mobility.initialY 450m
config *.attacker1.mobility.initialX 150m
config *.attacker1.mobility.initialY 450m
config *.attacker2.mobility.initialX 650m
config *.attacker2.mobility.initialY 450m
config *.master.mobility.typename StationaryMobility
config *.slave1.mobility.typename StationaryMobility
config *.slave2.mobility.typename StationaryMobility
config *.slave3.mobility.typename StationaryMobility
config *.attacker1.mobility.typename StationaryMobility
config *.attacker2.mobility.typename StationaryMobility
config *.master.numApps 1
config *.master.app[0].typename UdpBasicApp
config *.master.app[0].destAddresses "\"slave1 slave2 slave3\""
config *.master.app[0].destPort 5000
config *.master.app[0].messageLength 200B
config *.master.app[0].sendInterval 0.02s
config *.slave1.numApps 1
config *.slave1.app[0].typename UdpSink
config *.slave1.app[0].localPort 5000
config *.slave2.numApps 1
config *.slave2.app[0].typename UdpSink
config *.slave2.app[0].localPort 5000
config *.slave3.numApps 1
config *.slave3.app[0].typename UdpSink
config *.slave3.app[0].localPort 5000

vector 0 BluetoothNetwork.master.lo[0].lo rcvdPkFromHl:vector(packetBytes) ETV
attr interpolationmode none
attr recordingmode vector(packetBytes)
attr source packetReceivedFromUpper
attr title "packets received from higher layer, packetBytes"
vector 1 BluetoothNetwork.master.lo[0].lo passedUpPk:vector(packetBytes) ETV
attr interpolationmode none
attr recordingmode vector(packetBytes)
attr source packetSentToUpper
attr title "packets passed to higher layer, packetBytes"
vector 2 BluetoothNetwork.master.lo[0] packetDropInterfaceDown:vector(packetBytes) ETV
attr interpolationmode none
attr recordingmode vector(packetBytes)
attr source packetDropReasonIsInterfaceDown(packetDropped)
attr title "packet drops: interface down, packetBytes"
vector 3 BluetoothNetwork.master.lo[0] packetDropNoCarrier:vector(packetBytes) ETV
attr interpolationmode none
attr recordingmode vector(packetBytes)
attr source packetDropReasonIsNoCarrier(packetDropped)
attr title "packet drops: no carrier, packetBytes"
vector 4 BluetoothNetwork.master.wlan[0].agent sentRequest:vector ETV
attr recordingmode vector
attr title "sent requests"
vector 5 BluetoothNetwork.master.wlan[0].agent acceptConfirm:vector ETV
attr recordingmode vector
attr title "accepted confirms"
vector 6 BluetoothNetwork.master.wlan[0].agent dropConfirm:vector ETV
attr recordingmode vector
attr title "dropped confirms"
vector 7 BluetoothNetwork.master.wlan[0].mac.dcf.channelAccess.pendingQueue queueLength:vector ETV
attr autoWarmupFilter false
attr interpolationmode sample-hold
attr recordingmode vector
attr source "warmup(atomic(constant0(packetPushEnded) + count(packetPushStarted) - count(packetPulled) - count(packetRemoved) - count(packetDropped)))"
attr title "queue length"
attr unit pk
vector 8 BluetoothNetwork.master.wlan[0].mac.dcf.channelAccess.pendingQueue queueBitLength:vector ETV
attr autoWarmupFilter false
attr interpolationmode sample-hold
attr recordingmode vector
attr source "warmup(atomic(constant0(packetPushEnded) + sum(packetLength(packetPushStarted)) - sum(packetLength(packetPulled)) - sum(packetLength(packetRemoved)) - sum(packetLength(packetDropped))))"
attr title "queue bit length"
attr unit b
vector 9 BluetoothNetwork.master.wlan[0].mac.dcf.channelAccess.pendingQueue queueingTime:vector ETV
attr interpolationmode none
attr recordingmode vector
attr source queueingTime(packetPulled)
attr title "queueing times"
attr unit s
vector 10 BluetoothNetwork.master.wlan[0].mac.dcf.channelAccess.pendingQueue incomingPacketLengths:vector ETV
attr interpolationmode none
attr recordingmode vector
attr source packetLength(packetPushStarted)
attr title "incoming packet lengths"
attr unit b
vector 11 BluetoothNetwork.master.wlan[0].mac.dcf.channelAccess.pendingQueue incomingDataRate:vector ETV
attr interpolationmode linear
attr recordingmode vector
attr source throughput(packetPushStarted)
attr title "incoming datarate"
attr unit bps
vector 12 BluetoothNetwork.master.wlan[0].mac.dcf.channelAccess.pendingQueue outgoingPacketLengths:vector ETV
attr interpolationmode none
attr recordingmode vector
attr source packetLength(packetPulled)
attr title "outgoing packet lengths"
attr unit b
vector 13 BluetoothNetwork.master.wlan[0].mac.dcf.channelAccess.pendingQueue outgoingDataRate:vector ETV
attr interpolationmode linear
attr recordingmode vector
attr source throughput(packetPulled)
attr title "outgoing datarate"
attr unit bps
vector 14 BluetoothNetwork.master.wlan[0].mac.dcf.channelAccess.pendingQueue droppedPacketLengthsQueueOverflow:vector ETV
attr interpolationmode none
attr recordingmode vector
attr source packetLength(packetDropReasonIsQueueOverflow(packetDropped))
attr title "dropped packet lengths: queue overflow"
attr unit b
vector 15 BluetoothNetwork.master.wlan[0].mac.dcf.channelAccess.pendingQueue flowQueueingTime:vector ETV
attr interpolationmode none
attr recordingmode vector
attr source queueingTime(demuxFlow(packetPulled))
attr title "flow queueing times"
attr unit s
vector 16 BluetoothNetwork.master.wlan[0].mac.dcf.channelAccess.pendingQueue flowIncomingDataRate:vector ETV
attr interpolationmode linear
attr recordingmode vector
attr source throughput(flowPacketLength(demuxFlow(packetPushStarted)))
attr title "flow specific incoming data rate"
attr unit bps
vector 17 BluetoothNetwork.master.wlan[0].mac.dcf.channelAccess.pendingQueue flowOutgoingDataRate:vector ETV
attr interpolationmode linear
attr recordingmode vector
attr source throughput(flowPacketLength(demuxFlow(packetPulled)))
attr title "flow specific outgoing data rate"
attr unit bps
vector 18 BluetoothNetwork.master.wlan[0].mac.dcf.channelAccess.inProgressFrames queueingTime:vector ETV
attr interpolationmode none
attr recordingmode vector
attr source queueingTime(packetDequeued)
attr title "queueing times"
vector 19 BluetoothNetwork.master.wlan[0].mac.dcf.channelAccess.inProgressFrames queueLength:vector ETV
attr autoWarmupFilter false
attr interpolationmode sample-hold
attr recordingmode vector
attr source "warmup(count(packetEnqueued) - count(packetDequeued))"
attr title "queue length"
vector 20 BluetoothNetwork.master.wlan[0].mac.dcf.channelAccess.contention backoffPeriodGenerated:vector ETV
attr interpolationmode none
attr recordingmode vector
attr title "backoff periods"
vector 21 BluetoothNetwork.master.wlan[0].mac.dcf.channelAccess.contention backoffActive:vector ETV
attr autoWarmupFilter false
attr interpolationmode sample-hold
attr recordingmode vector
attr source warmup(count(backoffStarted)-count(backoffStopped))
attr title "backoff active"
vector 22 BluetoothNetwork.master.wlan[0].mac.dcf.channelAccess.contention stateChanged:vector ETV
attr enum IDLE,DEFER,IFS_AND_BACKOFF
attr interpolationmode none
attr recordingmode vector
attr title "contention state changed"
attr type enum
vector 23 BluetoothNetwork.master.wlan[0].mac.dcf.recipientMacDataService packetDropDuplicateDetected:vector(packetBytes) ETV
attr interpolationmode none
attr recordingmode vector(packetBytes)
attr source packetDropReasonIsDuplicateDetected(packetDropped)
attr title "packet drops: duplicate detected, packetBytes"
vector 24 BluetoothNetwork.master.wlan[0].mac.dcf.recoveryProcedure contentionWindowChanged:vector ETV
attr interpolationmode sample-hold
attr recordingmode vector
attr title "contention window"
vector 25 BluetoothNetwork.master.wlan[0].mac.dcf packetSentToPeer:vector(packetBytes) ETV
attr interpolationmode none
attr recordingmode vector(packetBytes)
attr title "packets sent, packetBytes"
vector 26 BluetoothNetwork.master.wlan[0].mac.dcf packetSentToPeerUnicast:vector(packetBytes) ETV
attr interpolationmode none
attr recordingmode vector(packetBytes)
attr source ieee80211Unicast(packetSentToPeer)
attr title "packets sent: unicast, packetBytes"
vector 27 BluetoothNetwork.master.wlan[0].mac.dcf packetSentToPeerMulticast:vector(packetBytes) ETV
attr interpolationmode none
attr recordingmode vector(packetBytes)
attr source ieee80211Multicast(packetSentToPeer)
attr title "packets sent: multicast, packetBytes"
vector 28 BluetoothNetwork.master.wlan[0].mac.dcf packetSentToPeerBroadcast:vector(packetBytes) ETV
attr interpolationmode none
attr recordingmode vector(packetBytes)
attr source ieee80211Broadcast(packetSentToPeer)
attr title "packets sent: broadcast , packetBytes"
vector 29 BluetoothNetwork.master.wlan[0].mac.dcf packetSentToPeerWithRetry:vector(packetBytes) ETV
attr interpolationmode none
attr recordingmode vector(packetBytes)
attr source ieee80211Retry(packetSentToPeer)
attr title "packets sent: with retry, packetBytes"
vector 30 BluetoothNetwork.master.wlan[0].mac.dcf packetSentToPeerWithoutRetry:vector(packetBytes) ETV
attr interpolationmode none
attr recordingmode vector(packetBytes)
attr source ieee80211NotRetry(packetSentToPeer)
attr title "packets sent: without retry, packetBytes"
vector 31 BluetoothNetwork.master.wlan[0].mac.dcf packetReceivedFromPeer:vector(packetBytes) ETV
attr interpolationmode none
attr recordingmode vector(packetBytes)
attr title "packets received, packetBytes"
vector 32 BluetoothNetwork.master.wlan[0].mac.dcf packetReceivedFromPeerUnicast:vector(packetBytes) ETV
attr interpolationmode none
attr recordingmode vector(packetBytes)
attr source ieee80211Unicast(packetReceivedFromPeer)
attr title "packets received: unicast, packetBytes"
vector 33 BluetoothNetwork.master.wlan[0].mac.dcf packetReceivedFromPeerMulticast:vector(packetBytes) ETV
attr interpolationmode none
attr recordingmode vector(packetBytes)
attr source ieee80211Multicast(packetReceivedFromPeer)
attr title "packets received: multicast, packetBytes"
vector 34 BluetoothNetwork.master.wlan[0].mac.dcf packetReceivedFromPeerBroadcast:vector(packetBytes) ETV
attr interpolationmode none
attr recordingmode vector(packetBytes)
attr source ieee80211Broadcast(packetReceivedFromPeer)
attr title "packets received: broadcast, packetBytes"
vector 35 BluetoothNetwork.master.wlan[0].mac.dcf packetReceivedFromPeerWithRetry:vector(packetBytes) ETV
attr interpolationmode none
attr recordingmode vector(packetBytes)
attr source ieee80211Retry(packetReceivedFromPeer)
attr title "packets received: with retry, packetBytes"
vector 36 BluetoothNetwork.master.wlan[0].mac.dcf packetReceivedFromPeerWithoutRetry:vector(packetBytes) ETV
attr interpolationmode none
attr recordingmode vector(packetBytes)
attr source ieee80211NotRetry(packetReceivedFromPeer)
attr title "packets received: without retry, packetBytes"
vector 37 BluetoothNetwork.master.wlan[0].mac.dcf packetDrop:vector(packetBytes) ETV
attr interpolationmode none
attr recordingmode vector(packetBytes)
attr source packetDropped
attr title "packet drops, packetBytes"
vector 38 BluetoothNetwork.master.wlan[0].mac.dcf packetDropNotAddressedToUs:vector(packetBytes) ETV
attr interpolationmode none
attr recordingmode vector(packetBytes)
attr source packetDropReasonIsNotAddressedToUs(packetDropped)
attr title "packet drops: not addressed to us, packetBytes"
vector 39 BluetoothNetwork.master.wlan[0].mac.dcf packetDropQueueOverflow:vector(packetBytes) ETV
attr interpolationmode none
attr recordingmode vector(packetBytes)
attr source packetDropReasonIsQueueOverflow(packetDropped)
attr title "packet drops: queue overflow, packetBytes"
vector 40 BluetoothNetwork.master.wlan[0].mac.dcf packetDropRetryLimitReached:vector(packetBytes) ETV
attr interpolationmode none
attr recordingmode vector(packetBytes)
attr source packetDropReasonIsRetryLimitReached(packetDropped)
attr title "packet drops: retry limit reached, packetBytes"
vector 41 BluetoothNetwork.master.wlan[0].mac.dcf frameSequenceActive:vector ETV
attr autoWarmupFilter false
attr interpolationmode sample-hold
attr recordingmode vector
attr source warmup(count(frameSequenceStarted)-count(frameSequenceFinished))
attr title "frame sequence active"
vector 42 BluetoothNetwork.master.wlan[0].mac.dcf datarateSelected:vector ETV
attr interpolationmode none
attr recordingmode vector
attr title "datarates selected"
vector 43 BluetoothNetwork.master.wlan[0].mac.rx nav:vector ETV
attr interpolationmode linear
attr recordingmode vector
attr source navChanged
attr title "network allocation vector"
vector 44 BluetoothNetwork.master.wlan[0].mac packetSentToUpper:vector(packetBytes) ETV
attr interpolationmode none
attr recordingmode vector(packetBytes)
attr title "packets sent to upper layer, packetBytes"
vector 45 BluetoothNetwork.master.wlan[0].mac packetSentToLower:vector(packetBytes) ETV
attr interpolationmode none
attr recordingmode vector(packetBytes)
attr title "packets sent to lower layer, packetBytes"
vector 46 BluetoothNetwork.master.wlan[0].mac packetReceivedFromUpper:vector(packetBytes) ETV
attr interpolationmode none
attr recordingmode vector(packetBytes)
attr title "packets received from upper layer, packetBytes"
vector 47 BluetoothNetwork.master.wlan[0].mac packetReceivedFromLower:vector(packetBytes) ETV
attr interpolationmode none
attr recordingmode vector(packetBytes)
attr title "packets received from lower layer, packetBytes"
vector 48 BluetoothNetwork.master.wlan[0].mac packetDrop:vector(packetBytes) ETV
attr interpolationmode none
attr recordingmode vector(packetBytes)
attr source packetDropped
attr title "packet drops, packetBytes"
vector 49 BluetoothNetwork.master.wlan[0].mac packetDropIncorrectlyReceived:vector(packetBytes) ETV
attr interpolationmode none
attr recordingmode vector(packetBytes)
attr source packetDropReasonIsIncorrectlyReceived(packetDropped)
attr title "packet drops: incorrectly received, packetBytes"
vector 50 BluetoothNetwork.master.wlan[0].mac packetDropNotAddressedToUs:vector(packetBytes) ETV
attr interpolationmode none
attr recordingmode vector(packetBytes)
attr source packetDropReasonIsNotAddressedToUs(packetDropped)
attr title "packet drops: not addressed to us, packetBytes"
vector 51 BluetoothNetwork.master.wlan[0].mac packetDropQueueOverflow:vector(packetBytes) ETV
attr interpolationmode none
attr recordingmode vector(packetBytes)
attr source packetDropReasonIsQueueOverflow(packetDropped)
attr title "packet drops: queue overflow, packetBytes"
vector 52 BluetoothNetwork.master.wlan[0].mac packetDropRetryLimitReached:vector(packetBytes) ETV
attr interpolationmode none
attr recordingmode vector(packetBytes)
attr source packetDropReasonIsRetryLimitReached(packetDropped)
attr title "packet drops: retry limit reached, packetBytes"
vector 53 BluetoothNetwork.master.wlan[0].mac packetDropDuplicateDetected:vector(packetBytes) ETV
attr interpolationmode none
attr recordingmode vector(packetBytes)
attr source packetDropReasonIsDuplicateDetected(packetDropped)
attr title "packet drops: duplicate detected, packetBytes"
vector 54 BluetoothNetwork.master.wlan[0].mac packetDropOther:vector(packetBytes) ETV
attr interpolationmode none
attr recordingmode vector(packetBytes)
attr source packetDropReasonIsOther(packetDropped)
attr title "packet drops: other, packetBytes"
vector 55 BluetoothNetwork.master.wlan[0].radio radioMode:vector ETV
attr enum OFF,SLEEP,RECEIVER,TRANSMITTER,TRANSCEIVER,SWITCHING
attr interpolationmode sample-hold
attr recordingmode vector
attr source radioModeChanged
attr title "Radio mode"
attr type enum
vector 56 BluetoothNetwork.master.wlan[0].radio receptionState:vector ETV
attr enum UNDEFINED,IDLE,BUSY,RECEIVING
attr interpolationmode sample-hold
attr recordingmode vector
attr source receptionStateChanged
attr title "Radio reception state"
attr type enum
vector 57 BluetoothNetwork.master.wlan[0].radio transmissionState:vector ETV
attr enum UNDEFINED,IDLE,TRANSMITTING
attr interpolationmode sample-hold
attr recordingmode vector
attr source transmissionStateChanged
attr title "Radio transmission state"
attr type enum
vector 58 BluetoothNetwork.master.wlan[0].radio radioChannel:vector ETV
attr interpolationmode sample-hold
attr recordingmode vector
attr source radioChannelChanged
attr title "Radio channel"
vector 59 BluetoothNetwork.master.wlan[0] packetDropInterfaceDown:vector(packetBytes) ETV
attr interpolationmode none
attr recordingmode vector(packetBytes)
attr source packetDropReasonIsInterfaceDown(packetDropped)
attr title "packet drops: interface down, packetBytes"
vector 60 BluetoothNetwork.master.wlan[0] packetDropNoCarrier:vector(packetBytes) ETV
attr interpolationmode none
attr recordingmode vector(packetBytes)
attr source packetDropReasonIsNoCarrier(packetDropped)
attr title "packet drops: no carrier, packetBytes"
vector 61 BluetoothNetwork.master.ipv4.ip packetDropAddressResolutionFailed:vector(packetBytes) ETV
attr interpolationmode none
attr recordingmode vector(packetBytes)
attr source packetDropReasonIsAddressResolutionFailed(packetDropped)
attr title "packet drop: address resolution failed, packetBytes"
vector 62 BluetoothNetwork.master.ipv4.ip packetDropHopLimitReached:vector(packetBytes) ETV
attr interpolationmode none
attr recordingmode vector(packetBytes)
attr source packetDropReasonIsHopLimitReached(packetDropped)
attr title "packet drop: hop limit reached, packetBytes"
vector 63 BluetoothNetwork.master.ipv4.ip packetDropForwardingDisabled:vector(packetBytes) ETV
attr interpolationmode none
attr recordingmode vector(packetBytes)
attr source packetDropReasonIsForwardingDisabled(packetDropped)
attr title "packet drop: forwarding disabled, packetBytes"
vector 64 BluetoothNetwork.master.ipv4.ip packetDropLifetimeExpired:vector(packetBytes) ETV
attr interpolationmode none
attr recordingmode vector(packetBytes)
attr source packetDropReasonIsLifetimeExpired(packetDropped)
attr title "packet drop: lifetime expired, packetBytes"
vector 65 BluetoothNetwork.master.ipv4.ip packetDropNoInterfaceFound:vector(packetBytes) ETV
attr interpolationmode none
attr recordingmode vector(packetBytes)
attr source packetDropReasonIsNoInterfaceFound(packetDropped)
attr title "packet drop: no interface found, packetBytes"
vector 66 BluetoothNetwork.master.ipv4.ip packetDropNoRouteFound:vector(packetBytes) ETV
attr interpolationmode none
attr recordingmode vector(packetBytes)
attr source packetDropReasonIsNoRouteFound(packetDropped)
attr title "packet drop: no route found, packetBytes"
vector 67 BluetoothNetwork.master.ipv4.ip packetDropUndefined:vector(packetBytes) ETV
attr interpolationmode none
attr recordingmode vector(packetBytes)
attr source packetDropReasonIsUndefined(packetDropped)
attr title "packet drop: undefined, packetBytes"
vector 68 BluetoothNetwork.master.ipv4.arp arpRequestSent:vector(packetBytes) ETV
attr recordingmode vector(packetBytes)
attr source arpRequestSent
attr title "ARP request sent, packetBytes"
vector 69 BluetoothNetwork.master.ipv4.arp arpReplySent:vector(packetBytes) ETV
attr recordingmode vector(packetBytes)
attr source arpReplySent
attr title "ARP replies sent, packetBytes"
vector 70 BluetoothNetwork.master.udp packetSent:vector(packetBytes) ETV
attr interpolationmode none
attr recordingmode vector(packetBytes)
attr source packetSent
attr title "packets sent, packetBytes"
vector 71 BluetoothNetwork.master.udp outgoingDataRate:vector ETV
attr interpolationmode linear
attr recordingmode vector
attr source throughput(packetSent)
attr title "outgoing datarate"
attr unit bps
vector 72 BluetoothNetwork.master.udp packetReceived:vector(packetBytes) ETV
attr interpolationmode none
attr recordingmode vector(packetBytes)
attr source packetReceived
attr title "packets received, packetBytes"
vector 73 BluetoothNetwork.master.udp passedUpPk:vector(count) ETV
attr interpolationmode none
attr recordingmode vector(count)
attr source packetSentToUpper
attr title "packets passed up, count"
vector 74 BluetoothNetwork.master.udp droppedPkWrongPort:vector(count) ETV
attr interpolationmode none
attr recordingmode vector(count)
attr source packetDropReasonIsNoPortFound(packetDropped)
attr title "packets dropped (wrong port), count"
vector 75 BluetoothNetwork.master.udp droppedPkBadChecksum:vector(count) ETV
attr interpolationmode none
attr recordingmode vector(count)
attr source packetDropReasonIsIncorrectlyReceived(packetDropped)
attr title "packets dropped (checksum error), count"
vector 76 BluetoothNetwork.master.app[0] packetReceived:vector(packetBytes) ETV
attr interpolationmode none
attr recordingmode vector(packetBytes)
attr source packetReceived
attr title "packets received, packetBytes"
vector 77 BluetoothNetwork.master.app[0] throughput:vector ETV
attr recordingmode vector
attr source throughput(packetReceived)
attr title throughput
attr unit bps
vector 78 BluetoothNetwork.master.app[0] packetSent:vector(packetBytes) ETV
attr interpolationmode none
attr recordingmode vector(packetBytes)
attr source packetSent
attr title "packets sent, packetBytes"
vector 79 BluetoothNetwork.master.app[0] rcvdPkLifetime:vector ETV
attr interpolationmode none
attr recordingmode vector
attr source dataAge(packetReceived)
attr title "received packet lifetime"
attr unit s
vector 80 BluetoothNetwork.master.app[0] rcvdPkSeqNo:vector ETV
attr interpolationmode none
attr recordingmode vector
attr source appPkSeqNo(packetReceived)
attr title "received packet sequence number"
vector 81 BluetoothNetwork.slave1.lo[0].lo rcvdPkFromHl:vector(packetBytes) ETV
attr interpolationmode none
attr recordingmode vector(packetBytes)
attr source packetReceivedFromUpper
attr title "packets received from higher layer, packetBytes"
vector 82 BluetoothNetwork.slave1.lo[0].lo passedUpPk:vector(packetBytes) ETV
attr interpolationmode none
attr recordingmode vector(packetBytes)
attr source packetSentToUpper
attr title "packets passed to higher layer, packetBytes"
vector 83 BluetoothNetwork.slave1.lo[0] packetDropInterfaceDown:vector(packetBytes) ETV
attr interpolationmode none
attr recordingmode vector(packetBytes)
attr source packetDropReasonIsInterfaceDown(packetDropped)
attr title "packet drops: interface down, packetBytes"
vector 84 BluetoothNetwork.slave1.lo[0] packetDropNoCarrier:vector(packetBytes) ETV
attr interpolationmode none
attr recordingmode vector(packetBytes)
attr source packetDropReasonIsNoCarrier(packetDropped)
attr title "packet drops: no carrier, packetBytes"
vector 85 BluetoothNetwork.slave1.wlan[0].agent sentRequest:vector ETV
attr recordingmode vector
attr title "sent requests"
vector 86 BluetoothNetwork.slave1.wlan[0].agent acceptConfirm:vector ETV
attr recordingmode vector
attr title "accepted confirms"
vector 87 BluetoothNetwork.slave1.wlan[0].agent dropConfirm:vector ETV
attr recordingmode vector
attr title "dropped confirms"
vector 88 BluetoothNetwork.slave1.wlan[0].mac.dcf.channelAccess.pendingQueue queueLength:vector ETV
attr autoWarmupFilter false
attr interpolationmode sample-hold
attr recordingmode vector
attr source "warmup(atomic(constant0(packetPushEnded) + count(packetPushStarted) - count(packetPulled) - count(packetRemoved) - count(packetDropped)))"
attr title "queue length"
attr unit pk
vector 89 BluetoothNetwork.slave1.wlan[0].mac.dcf.channelAccess.pendingQueue queueBitLength:vector ETV
attr autoWarmupFilter false
attr interpolationmode sample-hold
attr recordingmode vector
attr source "warmup(atomic(constant0(packetPushEnded) + sum(packetLength(packetPushStarted)) - sum(packetLength(packetPulled)) - sum(packetLength(packetRemoved)) - sum(packetLength(packetDropped))))"
attr title "queue bit length"
attr unit b
vector 90 BluetoothNetwork.slave1.wlan[0].mac.dcf.channelAccess.pendingQueue queueingTime:vector ETV
attr interpolationmode none
attr recordingmode vector
attr source queueingTime(packetPulled)
attr title "queueing times"
attr unit s
vector 91 BluetoothNetwork.slave1.wlan[0].mac.dcf.channelAccess.pendingQueue incomingPacketLengths:vector ETV
attr interpolationmode none
attr recordingmode vector
attr source packetLength(packetPushStarted)
attr title "incoming packet lengths"
attr unit b
vector 92 BluetoothNetwork.slave1.wlan[0].mac.dcf.channelAccess.pendingQueue incomingDataRate:vector ETV
attr interpolationmode linear
attr recordingmode vector
attr source throughput(packetPushStarted)
attr title "incoming datarate"
attr unit bps
vector 93 BluetoothNetwork.slave1.wlan[0].mac.dcf.channelAccess.pendingQueue outgoingPacketLengths:vector ETV
attr interpolationmode none
attr recordingmode vector
attr source packetLength(packetPulled)
attr title "outgoing packet lengths"
attr unit b
vector 94 BluetoothNetwork.slave1.wlan[0].mac.dcf.channelAccess.pendingQueue outgoingDataRate:vector ETV
attr interpolationmode linear
attr recordingmode vector
attr source throughput(packetPulled)
attr title "outgoing datarate"
attr unit bps
vector 95 BluetoothNetwork.slave1.wlan[0].mac.dcf.channelAccess.pendingQueue droppedPacketLengthsQueueOverflow:vector ETV
attr interpolationmode none
attr recordingmode vector
attr source packetLength(packetDropReasonIsQueueOverflow(packetDropped))
attr title "dropped packet lengths: queue overflow"
attr unit b
vector 96 BluetoothNetwork.slave1.wlan[0].mac.dcf.channelAccess.pendingQueue flowQueueingTime:vector ETV
attr interpolationmode none
attr recordingmode vector
attr source queueingTime(demuxFlow(packetPulled))
attr title "flow queueing times"
attr unit s
vector 97 BluetoothNetwork.slave1.wlan[0].mac.dcf.channelAccess.pendingQueue flowIncomingDataRate:vector ETV
attr interpolationmode linear
attr recordingmode vector
attr source throughput(flowPacketLength(demuxFlow(packetPushStarted)))
attr title "flow specific incoming data rate"
attr unit bps
vector 98 BluetoothNetwork.slave1.wlan[0].mac.dcf.channelAccess.pendingQueue flowOutgoingDataRate:vector ETV
attr interpolationmode linear
attr recordingmode vector
attr source throughput(flowPacketLength(demuxFlow(packetPulled)))
attr title "flow specific outgoing data rate"
attr unit bps
vector 99 BluetoothNetwork.slave1.wlan[0].mac.dcf.channelAccess.inProgressFrames queueingTime:vector ETV
attr interpolationmode none
attr recordingmode vector
attr source queueingTime(packetDequeued)
attr title "queueing times"
vector 100 BluetoothNetwork.slave1.wlan[0].mac.dcf.channelAccess.inProgressFrames queueLength:vector ETV
attr autoWarmupFilter false
attr interpolationmode sample-hold
attr recordingmode vector
attr source "warmup(count(packetEnqueued) - count(packetDequeued))"
attr title "queue length"
vector 101 BluetoothNetwork.slave1.wlan[0].mac.dcf.channelAccess.contention backoffPeriodGenerated:vector ETV
attr interpolationmode none
attr recordingmode vector
attr title "backoff periods"
vector 102 BluetoothNetwork.slave1.wlan[0].mac.dcf.channelAccess.contention backoffActive:vector ETV
attr autoWarmupFilter false
attr interpolationmode sample-hold
attr recordingmode vector
attr source warmup(count(backoffStarted)-count(backoffStopped))
attr title "backoff active"
vector 103 BluetoothNetwork.slave1.wlan[0].mac.dcf.channelAccess.contention stateChanged:vector ETV
attr enum IDLE,DEFER,IFS_AND_BACKOFF
attr interpolationmode none
attr recordingmode vector
attr title "contention state changed"
attr type enum
vector 104 BluetoothNetwork.slave1.wlan[0].mac.dcf.recipientMacDataService packetDropDuplicateDetected:vector(packetBytes) ETV
attr interpolationmode none
attr recordingmode vector(packetBytes)
attr source packetDropReasonIsDuplicateDetected(packetDropped)
attr title "packet drops: duplicate detected, packetBytes"
vector 105 BluetoothNetwork.slave1.wlan[0].mac.dcf.recoveryProcedure contentionWindowChanged:vector ETV
attr interpolationmode sample-hold
attr recordingmode vector
attr title "contention window"
vector 106 BluetoothNetwork.slave1.wlan[0].mac.dcf packetSentToPeer:vector(packetBytes) ETV
attr interpolationmode none
attr recordingmode vector(packetBytes)
attr title "packets sent, packetBytes"
vector 107 BluetoothNetwork.slave1.wlan[0].mac.dcf packetSentToPeerUnicast:vector(packetBytes) ETV
attr interpolationmode none
attr recordingmode vector(packetBytes)
attr source ieee80211Unicast(packetSentToPeer)
attr title "packets sent: unicast, packetBytes"
vector 108 BluetoothNetwork.slave1.wlan[0].mac.dcf packetSentToPeerMulticast:vector(packetBytes) ETV
attr interpolationmode none
attr recordingmode vector(packetBytes)
attr source ieee80211Multicast(packetSentToPeer)
attr title "packets sent: multicast, packetBytes"
vector 109 BluetoothNetwork.slave1.wlan[0].mac.dcf packetSentToPeerBroadcast:vector(packetBytes) ETV
attr interpolationmode none
attr recordingmode vector(packetBytes)
attr source ieee80211Broadcast(packetSentToPeer)
attr title "packets sent: broadcast , packetBytes"
vector 110 BluetoothNetwork.slave1.wlan[0].mac.dcf packetSentToPeerWithRetry:vector(packetBytes) ETV
attr interpolationmode none
attr recordingmode vector(packetBytes)
attr source ieee80211Retry(packetSentToPeer)
attr title "packets sent: with retry, packetBytes"
vector 111 BluetoothNetwork.slave1.wlan[0].mac.dcf packetSentToPeerWithoutRetry:vector(packetBytes) ETV
attr interpolationmode none
attr recordingmode vector(packetBytes)
attr source ieee80211NotRetry(packetSentToPeer)
attr title "packets sent: without retry, packetBytes"
vector 112 BluetoothNetwork.slave1.wlan[0].mac.dcf packetReceivedFromPeer:vector(packetBytes) ETV
attr interpolationmode none
attr recordingmode vector(packetBytes)
attr title "packets received, packetBytes"
vector 113 BluetoothNetwork.slave1.wlan[0].mac.dcf packetReceivedFromPeerUnicast:vector(packetBytes) ETV
attr interpolationmode none
attr recordingmode vector(packetBytes)
attr source ieee80211Unicast(packetReceivedFromPeer)
attr title "packets received: unicast, packetBytes"
vector 114 BluetoothNetwork.slave1.wlan[0].mac.dcf packetReceivedFromPeerMulticast:vector(packetBytes) ETV
attr interpolationmode none
attr recordingmode vector(packetBytes)
attr source ieee80211Multicast(packetReceivedFromPeer)
attr title "packets received: multicast, packetBytes"
vector 115 BluetoothNetwork.slave1.wlan[0].mac.dcf packetReceivedFromPeerBroadcast:vector(packetBytes) ETV
attr interpolationmode none
attr recordingmode vector(packetBytes)
attr source ieee80211Broadcast(packetReceivedFromPeer)
attr title "packets received: broadcast, packetBytes"
vector 116 BluetoothNetwork.slave1.wlan[0].mac.dcf packetReceivedFromPeerWithRetry:vector(packetBytes) ETV
attr interpolationmode none
attr recordingmode vector(packetBytes)
attr source ieee80211Retry(packetReceivedFromPeer)
attr title "packets received: with retry, packetBytes"
vector 117 BluetoothNetwork.slave1.wlan[0].mac.dcf packetReceivedFromPeerWithoutRetry:vector(packetBytes) ETV
attr interpolationmode none
attr recordingmode vector(packetBytes)
attr source ieee80211NotRetry(packetReceivedFromPeer)
attr title "packets received: without retry, packetBytes"
vector 118 BluetoothNetwork.slave1.wlan[0].mac.dcf packetDrop:vector(packetBytes) ETV
attr interpolationmode none
attr recordingmode vector(packetBytes)
attr source packetDropped
attr title "packet drops, packetBytes"
vector 119 BluetoothNetwork.slave1.wlan[0].mac.dcf packetDropNotAddressedToUs:vector(packetBytes) ETV
attr interpolationmode none
attr recordingmode vector(packetBytes)
attr source packetDropReasonIsNotAddressedToUs(packetDropped)
attr title "packet drops: not addressed to us, packetBytes"
vector 120 BluetoothNetwork.slave1.wlan[0].mac.dcf packetDropQueueOverflow:vector(packetBytes) ETV
attr interpolationmode none
attr recordingmode vector(packetBytes)
attr source packetDropReasonIsQueueOverflow(packetDropped)
attr title "packet drops: queue overflow, packetBytes"
vector 121 BluetoothNetwork.slave1.wlan[0].mac.dcf packetDropRetryLimitReached:vector(packetBytes) ETV
attr interpolationmode none
attr recordingmode vector(packetBytes)
attr source packetDropReasonIsRetryLimitReached(packetDropped)
attr title "packet drops: retry limit reached, packetBytes"
vector 122 BluetoothNetwork.slave1.wlan[0].mac.dcf frameSequenceActive:vector ETV
attr autoWarmupFilter false
attr interpolationmode sample-hold
attr recordingmode vector
attr source warmup(count(frameSequenceStarted)-count(frameSequenceFinished))
attr title "frame sequence active"
vector 123 BluetoothNetwork.slave1.wlan[0].mac.dcf datarateSelected:vector ETV
attr interpolationmode none
attr recordingmode vector
attr title "datarates selected"
vector 124 BluetoothNetwork.slave1.wlan[0].mac.rx nav:vector ETV
attr interpolationmode linear
attr recordingmode vector
attr source navChanged
attr title "network allocation vector"
vector 125 BluetoothNetwork.slave1.wlan[0].mac packetSentToUpper:vector(packetBytes) ETV
attr interpolationmode none
attr recordingmode vector(packetBytes)
attr title "packets sent to upper layer, packetBytes"
vector 126 BluetoothNetwork.slave1.wlan[0].mac packetSentToLower:vector(packetBytes) ETV
attr interpolationmode none
attr recordingmode vector(packetBytes)
attr title "packets sent to lower layer, packetBytes"
vector 127 BluetoothNetwork.slave1.wlan[0].mac packetReceivedFromUpper:vector(packetBytes) ETV
attr interpolationmode none
attr recordingmode vector(packetBytes)
attr title "packets received from upper layer, packetBytes"
vector 128 BluetoothNetwork.slave1.wlan[0].mac packetReceivedFromLower:vector(packetBytes) ETV
attr interpolationmode none
attr recordingmode vector(packetBytes)
attr title "packets received from lower layer, packetBytes"
vector 129 BluetoothNetwork.slave1.wlan[0].mac packetDrop:vector(packetBytes) ETV
attr interpolationmode none
attr recordingmode vector(packetBytes)
attr source packetDropped
attr title "packet drops, packetBytes"
vector 130 BluetoothNetwork.slave1.wlan[0].mac packetDropIncorrectlyReceived:vector(packetBytes) ETV
attr interpolationmode none
attr recordingmode vector(packetBytes)
attr source packetDropReasonIsIncorrectlyReceived(packetDropped)
attr title "packet drops: incorrectly received, packetBytes"
vector 131 BluetoothNetwork.slave1.wlan[0].mac packetDropNotAddressedToUs:vector(packetBytes) ETV
attr interpolationmode none
attr recordingmode vector(packetBytes)
attr source packetDropReasonIsNotAddressedToUs(packetDropped)
attr title "packet drops: not addressed to us, packetBytes"
vector 132 BluetoothNetwork.slave1.wlan[0].mac packetDropQueueOverflow:vector(packetBytes) ETV
attr interpolationmode none
attr recordingmode vector(packetBytes)
attr source packetDropReasonIsQueueOverflow(packetDropped)
attr title "packet drops: queue overflow, packetBytes"
vector 133 BluetoothNetwork.slave1.wlan[0].mac packetDropRetryLimitReached:vector(packetBytes) ETV
attr interpolationmode none
attr recordingmode vector(packetBytes)
attr source packetDropReasonIsRetryLimitReached(packetDropped)
attr title "packet drops: retry limit reached, packetBytes"
vector 134 BluetoothNetwork.slave1.wlan[0].mac packetDropDuplicateDetected:vector(packetBytes) ETV
attr interpolationmode none
attr recordingmode vector(packetBytes)
attr source packetDropReasonIsDuplicateDetected(packetDropped)
attr title "packet drops: duplicate detected, packetBytes"
vector 135 BluetoothNetwork.slave1.wlan[0].mac packetDropOther:vector(packetBytes) ETV
attr interpolationmode none
attr recordingmode vector(packetBytes)
attr source packetDropReasonIsOther(packetDropped)
attr title "packet drops: other, packetBytes"
vector 136 BluetoothNetwork.slave1.wlan[0].radio radioMode:vector ETV
attr enum OFF,SLEEP,RECEIVER,TRANSMITTER,TRANSCEIVER,SWITCHING
attr interpolationmode sample-hold
attr recordingmode vector
attr source radioModeChanged
attr title "Radio mode"
attr type enum
vector 137 BluetoothNetwork.slave1.wlan[0].radio receptionState:vector ETV
attr enum UNDEFINED,IDLE,BUSY,RECEIVING
attr interpolationmode sample-hold
attr recordingmode vector
attr source receptionStateChanged
attr title "Radio reception state"
attr type enum
vector 138 BluetoothNetwork.slave1.wlan[0].radio transmissionState:vector ETV
attr enum UNDEFINED,IDLE,TRANSMITTING
attr interpolationmode sample-hold
attr recordingmode vector
attr source transmissionStateChanged
attr title "Radio transmission state"
attr type enum
vector 139 BluetoothNetwork.slave1.wlan[0].radio radioChannel:vector ETV
attr interpolationmode sample-hold
attr recordingmode vector
attr source radioChannelChanged
attr title "Radio channel"
vector 140 BluetoothNetwork.slave1.wlan[0] packetDropInterfaceDown:vector(packetBytes) ETV
attr interpolationmode none
attr recordingmode vector(packetBytes)
attr source packetDropReasonIsInterfaceDown(packetDropped)
attr title "packet drops: interface down, packetBytes"
vector 141 BluetoothNetwork.slave1.wlan[0] packetDropNoCarrier:vector(packetBytes) ETV
attr interpolationmode none
attr recordingmode vector(packetBytes)
attr source packetDropReasonIsNoCarrier(packetDropped)
attr title "packet drops: no carrier, packetBytes"
vector 142 BluetoothNetwork.slave1.ipv4.ip packetDropAddressResolutionFailed:vector(packetBytes) ETV
attr interpolationmode none
attr recordingmode vector(packetBytes)
attr source packetDropReasonIsAddressResolutionFailed(packetDropped)
attr title "packet drop: address resolution failed, packetBytes"
vector 143 BluetoothNetwork.slave1.ipv4.ip packetDropHopLimitReached:vector(packetBytes) ETV
attr interpolationmode none
attr recordingmode vector(packetBytes)
attr source packetDropReasonIsHopLimitReached(packetDropped)
attr title "packet drop: hop limit reached, packetBytes"
vector 144 BluetoothNetwork.slave1.ipv4.ip packetDropForwardingDisabled:vector(packetBytes) ETV
attr interpolationmode none
attr recordingmode vector(packetBytes)
attr source packetDropReasonIsForwardingDisabled(packetDropped)
attr title "packet drop: forwarding disabled, packetBytes"
vector 145 BluetoothNetwork.slave1.ipv4.ip packetDropLifetimeExpired:vector(packetBytes) ETV
attr interpolationmode none
attr recordingmode vector(packetBytes)
attr source packetDropReasonIsLifetimeExpired(packetDropped)
attr title "packet drop: lifetime expired, packetBytes"
vector 146 BluetoothNetwork.slave1.ipv4.ip packetDropNoInterfaceFound:vector(packetBytes) ETV
attr interpolationmode none
attr recordingmode vector(packetBytes)
attr source packetDropReasonIsNoInterfaceFound(packetDropped)
attr title "packet drop: no interface found, packetBytes"
vector 147 BluetoothNetwork.slave1.ipv4.ip packetDropNoRouteFound:vector(packetBytes) ETV
attr interpolationmode none
attr recordingmode vector(packetBytes)
attr source packetDropReasonIsNoRouteFound(packetDropped)
attr title "packet drop: no route found, packetBytes"
vector 148 BluetoothNetwork.slave1.ipv4.ip packetDropUndefined:vector(packetBytes) ETV
attr interpolationmode none
attr recordingmode vector(packetBytes)
attr source packetDropReasonIsUndefined(packetDropped)
attr title "packet drop: undefined, packetBytes"
vector 149 BluetoothNetwork.slave1.ipv4.arp arpRequestSent:vector(packetBytes) ETV
attr recordingmode vector(packetBytes)
attr source arpRequestSent
attr title "ARP request sent, packetBytes"
vector 150 BluetoothNetwork.slave1.ipv4.arp arpReplySent:vector(packetBytes) ETV
attr recordingmode vector(packetBytes)
attr source arpReplySent
attr title "ARP replies sent, packetBytes"
vector 151 BluetoothNetwork.slave1.udp packetSent:vector(packetBytes) ETV
attr interpolationmode none
attr recordingmode vector(packetBytes)
attr source packetSent
attr title "packets sent, packetBytes"
vector 152 BluetoothNetwork.slave1.udp outgoingDataRate:vector ETV
attr interpolationmode linear
attr recordingmode vector
attr source throughput(packetSent)
attr title "outgoing datarate"
attr unit bps
vector 153 BluetoothNetwork.slave1.udp packetReceived:vector(packetBytes) ETV
attr interpolationmode none
attr recordingmode vector(packetBytes)
attr source packetReceived
attr title "packets received, packetBytes"
vector 154 BluetoothNetwork.slave1.udp passedUpPk:vector(count) ETV
attr interpolationmode none
attr recordingmode vector(count)
attr source packetSentToUpper
attr title "packets passed up, count"
vector 155 BluetoothNetwork.slave1.udp droppedPkWrongPort:vector(count) ETV
attr interpolationmode none
attr recordingmode vector(count)
attr source packetDropReasonIsNoPortFound(packetDropped)
attr title "packets dropped (wrong port), count"
vector 156 BluetoothNetwork.slave1.udp droppedPkBadChecksum:vector(count) ETV
attr interpolationmode none
attr recordingmode vector(count)
attr source packetDropReasonIsIncorrectlyReceived(packetDropped)
attr title "packets dropped (checksum error), count"
vector 157 BluetoothNetwork.slave1.app[0] packetReceived:vector(packetBytes) ETV
attr interpolationmode none
attr recordingmode vector(packetBytes)
attr source packetReceived
attr title "packets received, packetBytes"
vector 158 BluetoothNetwork.slave1.app[0] throughput:vector ETV
attr recordingmode vector
attr source throughput(packetReceived)
attr title throughput
attr unit bps
vector 159 BluetoothNetwork.slave1.app[0] endToEndDelay:vector ETV
attr interpolationmode none
attr recordingmode vector
attr source dataAge(packetReceived)
attr title "end-to-end delay"
attr unit s
vector 160 BluetoothNetwork.slave1.app[0] rcvdPkSeqNo:vector ETV
attr interpolationmode none
attr recordingmode vector
attr source appPkSeqNo(packetReceived)
attr title "received packet sequence number"
vector 161 BluetoothNetwork.slave2.lo[0].lo rcvdPkFromHl:vector(packetBytes) ETV
attr interpolationmode none
attr recordingmode vector(packetBytes)
attr source packetReceivedFromUpper
attr title "packets received from higher layer, packetBytes"
vector 162 BluetoothNetwork.slave2.lo[0].lo passedUpPk:vector(packetBytes) ETV
attr interpolationmode none
attr recordingmode vector(packetBytes)
attr source packetSentToUpper
attr title "packets passed to higher layer, packetBytes"
vector 163 BluetoothNetwork.slave2.lo[0] packetDropInterfaceDown:vector(packetBytes) ETV
attr interpolationmode none
attr recordingmode vector(packetBytes)
attr source packetDropReasonIsInterfaceDown(packetDropped)
attr title "packet drops: interface down, packetBytes"
vector 164 BluetoothNetwork.slave2.lo[0] packetDropNoCarrier:vector(packetBytes) ETV
attr interpolationmode none
attr recordingmode vector(packetBytes)
attr source packetDropReasonIsNoCarrier(packetDropped)
attr title "packet drops: no carrier, packetBytes"
vector 165 BluetoothNetwork.slave2.wlan[0].agent sentRequest:vector ETV
attr recordingmode vector
attr title "sent requests"
vector 166 BluetoothNetwork.slave2.wlan[0].agent acceptConfirm:vector ETV
attr recordingmode vector
attr title "accepted confirms"
vector 167 BluetoothNetwork.slave2.wlan[0].agent dropConfirm:vector ETV
attr recordingmode vector
attr title "dropped confirms"
vector 168 BluetoothNetwork.slave2.wlan[0].mac.dcf.channelAccess.pendingQueue queueLength:vector ETV
attr autoWarmupFilter false
attr interpolationmode sample-hold
attr recordingmode vector
attr source "warmup(atomic(constant0(packetPushEnded) + count(packetPushStarted) - count(packetPulled) - count(packetRemoved) - count(packetDropped)))"
attr title "queue length"
attr unit pk
vector 169 BluetoothNetwork.slave2.wlan[0].mac.dcf.channelAccess.pendingQueue queueBitLength:vector ETV
attr autoWarmupFilter false
attr interpolationmode sample-hold
attr recordingmode vector
attr source "warmup(atomic(constant0(packetPushEnded) + sum(packetLength(packetPushStarted)) - sum(packetLength(packetPulled)) - sum(packetLength(packetRemoved)) - sum(packetLength(packetDropped))))"
attr title "queue bit length"
attr unit b
vector 170 BluetoothNetwork.slave2.wlan[0].mac.dcf.channelAccess.pendingQueue queueingTime:vector ETV
attr interpolationmode none
attr recordingmode vector
attr source queueingTime(packetPulled)
attr title "queueing times"
attr unit s
vector 171 BluetoothNetwork.slave2.wlan[0].mac.dcf.channelAccess.pendingQueue incomingPacketLengths:vector ETV
attr interpolationmode none
attr recordingmode vector
attr source packetLength(packetPushStarted)
attr title "incoming packet lengths"
attr unit b
vector 172 BluetoothNetwork.slave2.wlan[0].mac.dcf.channelAccess.pendingQueue incomingDataRate:vector ETV
attr interpolationmode linear
attr recordingmode vector
attr source throughput(packetPushStarted)
attr title "incoming datarate"
attr unit bps
vector 173 BluetoothNetwork.slave2.wlan[0].mac.dcf.channelAccess.pendingQueue outgoingPacketLengths:vector ETV
attr interpolationmode none
attr recordingmode vector
attr source packetLength(packetPulled)
attr title "outgoing packet lengths"
attr unit b
vector 174 BluetoothNetwork.slave2.wlan[0].mac.dcf.channelAccess.pendingQueue outgoingDataRate:vector ETV
attr interpolationmode linear
attr recordingmode vector
attr source throughput(packetPulled)
attr title "outgoing datarate"
attr unit bps
vector 175 BluetoothNetwork.slave2.wlan[0].mac.dcf.channelAccess.pendingQueue droppedPacketLengthsQueueOverflow:vector ETV
attr interpolationmode none
attr recordingmode vector
attr source packetLength(packetDropReasonIsQueueOverflow(packetDropped))
attr title "dropped packet lengths: queue overflow"
attr unit b
vector 176 BluetoothNetwork.slave2.wlan[0].mac.dcf.channelAccess.pendingQueue flowQueueingTime:vector ETV
attr interpolationmode none
attr recordingmode vector
attr source queueingTime(demuxFlow(packetPulled))
attr title "flow queueing times"
attr unit s
vector 177 BluetoothNetwork.slave2.wlan[0].mac.dcf.channelAccess.pendingQueue flowIncomingDataRate:vector ETV
attr interpolationmode linear
attr recordingmode vector
attr source throughput(flowPacketLength(demuxFlow(packetPushStarted)))
attr title "flow specific incoming data rate"
attr unit bps
vector 178 BluetoothNetwork.slave2.wlan[0].mac.dcf.channelAccess.pendingQueue flowOutgoingDataRate:vector ETV
attr interpolationmode linear
attr recordingmode vector
attr source throughput(flowPacketLength(demuxFlow(packetPulled)))
attr title "flow specific outgoing data rate"
attr unit bps
vector 179 BluetoothNetwork.slave2.wlan[0].mac.dcf.channelAccess.inProgressFrames queueingTime:vector ETV
attr interpolationmode none
attr recordingmode vector
attr source queueingTime(packetDequeued)
attr title "queueing times"
vector 180 BluetoothNetwork.slave2.wlan[0].mac.dcf.channelAccess.inProgressFrames queueLength:vector ETV
attr autoWarmupFilter false
attr interpolationmode sample-hold
attr recordingmode vector
attr source "warmup(count(packetEnqueued) - count(packetDequeued))"
attr title "queue length"
vector 181 BluetoothNetwork.slave2.wlan[0].mac.dcf.channelAccess.contention backoffPeriodGenerated:vector ETV
attr interpolationmode none
attr recordingmode vector
attr title "backoff periods"
vector 182 BluetoothNetwork.slave2.wlan[0].mac.dcf.channelAccess.contention backoffActive:vector ETV
attr autoWarmupFilter false
attr interpolationmode sample-hold
attr recordingmode vector
attr source warmup(count(backoffStarted)-count(backoffStopped))
attr title "backoff active"
vector 183 BluetoothNetwork.slave2.wlan[0].mac.dcf.channelAccess.contention stateChanged:vector ETV
attr enum IDLE,DEFER,IFS_AND_BACKOFF
attr interpolationmode none
attr recordingmode vector
attr title "contention state changed"
attr type enum
vector 184 BluetoothNetwork.slave2.wlan[0].mac.dcf.recipientMacDataService packetDropDuplicateDetected:vector(packetBytes) ETV
attr interpolationmode none
attr recordingmode vector(packetBytes)
attr source packetDropReasonIsDuplicateDetected(packetDropped)
attr title "packet drops: duplicate detected, packetBytes"
vector 185 BluetoothNetwork.slave2.wlan[0].mac.dcf.recoveryProcedure contentionWindowChanged:vector ETV
attr interpolationmode sample-hold
attr recordingmode vector
attr title "contention window"
vector 186 BluetoothNetwork.slave2.wlan[0].mac.dcf packetSentToPeer:vector(packetBytes) ETV
attr interpolationmode none
attr recordingmode vector(packetBytes)
attr title "packets sent, packetBytes"
vector 187 BluetoothNetwork.slave2.wlan[0].mac.dcf packetSentToPeerUnicast:vector(packetBytes) ETV
attr interpolationmode none
attr recordingmode vector(packetBytes)
attr source ieee80211Unicast(packetSentToPeer)
attr title "packets sent: unicast, packetBytes"
vector 188 BluetoothNetwork.slave2.wlan[0].mac.dcf packetSentToPeerMulticast:vector(packetBytes) ETV
attr interpolationmode none
attr recordingmode vector(packetBytes)
attr source ieee80211Multicast(packetSentToPeer)
attr title "packets sent: multicast, packetBytes"
vector 189 BluetoothNetwork.slave2.wlan[0].mac.dcf packetSentToPeerBroadcast:vector(packetBytes) ETV
attr interpolationmode none
attr recordingmode vector(packetBytes)
attr source ieee80211Broadcast(packetSentToPeer)
attr title "packets sent: broadcast , packetBytes"
vector 190 BluetoothNetwork.slave2.wlan[0].mac.dcf packetSentToPeerWithRetry:vector(packetBytes) ETV
attr interpolationmode none
attr recordingmode vector(packetBytes)
attr source ieee80211Retry(packetSentToPeer)
attr title "packets sent: with retry, packetBytes"
vector 191 BluetoothNetwork.slave2.wlan[0].mac.dcf packetSentToPeerWithoutRetry:vector(packetBytes) ETV
attr interpolationmode none
attr recordingmode vector(packetBytes)
attr source ieee80211NotRetry(packetSentToPeer)
attr title "packets sent: without retry, packetBytes"
vector 192 BluetoothNetwork.slave2.wlan[0].mac.dcf packetReceivedFromPeer:vector(packetBytes) ETV
attr interpolationmode none
attr recordingmode vector(packetBytes)
attr title "packets received, packetBytes"
vector 193 BluetoothNetwork.slave2.wlan[0].mac.dcf packetReceivedFromPeerUnicast:vector(packetBytes) ETV
attr interpolationmode none
attr recordingmode vector(packetBytes)
attr source ieee80211Unicast(packetReceivedFromPeer)
attr title "packets received: unicast, packetBytes"
vector 194 BluetoothNetwork.slave2.wlan[0].mac.dcf packetReceivedFromPeerMulticast:vector(packetBytes) ETV
attr interpolationmode none
attr recordingmode vector(packetBytes)
attr source ieee80211Multicast(packetReceivedFromPeer)
attr title "packets received: multicast, packetBytes"
vector 195 BluetoothNetwork.slave2.wlan[0].mac.dcf packetReceivedFromPeerBroadcast:vector(packetBytes) ETV
attr interpolationmode none
attr recordingmode vector(packetBytes)
attr source ieee80211Broadcast(packetReceivedFromPeer)
attr title "packets received: broadcast, packetBytes"
vector 196 BluetoothNetwork.slave2.wlan[0].mac.dcf packetReceivedFromPeerWithRetry:vector(packetBytes) ETV
attr interpolationmode none
attr recordingmode vector(packetBytes)
attr source ieee80211Retry(packetReceivedFromPeer)
attr title "packets received: with retry, packetBytes"
vector 197 BluetoothNetwork.slave2.wlan[0].mac.dcf packetReceivedFromPeerWithoutRetry:vector(packetBytes) ETV
attr interpolationmode none
attr recordingmode vector(packetBytes)
attr source ieee80211NotRetry(packetReceivedFromPeer)
attr title "packets received: without retry, packetBytes"
vector 198 BluetoothNetwork.slave2.wlan[0].mac.dcf packetDrop:vector(packetBytes) ETV
attr interpolationmode none
attr recordingmode vector(packetBytes)
attr source packetDropped
attr title "packet drops, packetBytes"
vector 199 BluetoothNetwork.slave2.wlan[0].mac.dcf packetDropNotAddressedToUs:vector(packetBytes) ETV
attr interpolationmode none
attr recordingmode vector(packetBytes)
attr source packetDropReasonIsNotAddressedToUs(packetDropped)
attr title "packet drops: not addressed to us, packetBytes"
vector 200 BluetoothNetwork.slave2.wlan[0].mac.dcf packetDropQueueOverflow:vector(packetBytes) ETV
attr interpolationmode none
attr recordingmode vector(packetBytes)
attr source packetDropReasonIsQueueOverflow(packetDropped)
attr title "packet drops: queue overflow, packetBytes"
vector 201 BluetoothNetwork.slave2.wlan[0].mac.dcf packetDropRetryLimitReached:vector(packetBytes) ETV
attr interpolationmode none
attr recordingmode vector(packetBytes)
attr source packetDropReasonIsRetryLimitReached(packetDropped)
attr title "packet drops: retry limit reached, packetBytes"
vector 202 BluetoothNetwork.slave2.wlan[0].mac.dcf frameSequenceActive:vector ETV
attr autoWarmupFilter false
attr interpolationmode sample-hold
attr recordingmode vector
attr source warmup(count(frameSequenceStarted)-count(frameSequenceFinished))
attr title "frame sequence active"
vector 203 BluetoothNetwork.slave2.wlan[0].mac.dcf datarateSelected:vector ETV
attr interpolationmode none
attr recordingmode vector
attr title "datarates selected"
vector 204 BluetoothNetwork.slave2.wlan[0].mac.rx nav:vector ETV
attr interpolationmode linear
attr recordingmode vector
attr source navChanged
attr title "network allocation vector"
vector 205 BluetoothNetwork.slave2.wlan[0].mac packetSentToUpper:vector(packetBytes) ETV
attr interpolationmode none
attr recordingmode vector(packetBytes)
attr title "packets sent to upper layer, packetBytes"
vector 206 BluetoothNetwork.slave2.wlan[0].mac packetSentToLower:vector(packetBytes) ETV
attr interpolationmode none
attr recordingmode vector(packetBytes)
attr title "packets sent to lower layer, packetBytes"
vector 207 BluetoothNetwork.slave2.wlan[0].mac packetReceivedFromUpper:vector(packetBytes) ETV
attr interpolationmode none
attr recordingmode vector(packetBytes)
attr title "packets received from upper layer, packetBytes"
vector 208 BluetoothNetwork.slave2.wlan[0].mac packetReceivedFromLower:vector(packetBytes) ETV
attr interpolationmode none
attr recordingmode vector(packetBytes)
attr title "packets received from lower layer, packetBytes"
vector 209 BluetoothNetwork.slave2.wlan[0].mac packetDrop:vector(packetBytes) ETV
attr interpolationmode none
attr recordingmode vector(packetBytes)
attr source packetDropped
attr title "packet drops, packetBytes"
vector 210 BluetoothNetwork.slave2.wlan[0].mac packetDropIncorrectlyReceived:vector(packetBytes) ETV
attr interpolationmode none
attr recordingmode vector(packetBytes)
attr source packetDropReasonIsIncorrectlyReceived(packetDropped)
attr title "packet drops: incorrectly received, packetBytes"
vector 211 BluetoothNetwork.slave2.wlan[0].mac packetDropNotAddressedToUs:vector(packetBytes) ETV
attr interpolationmode none
attr recordingmode vector(packetBytes)
attr source packetDropReasonIsNotAddressedToUs(packetDropped)
attr title "packet drops: not addressed to us, packetBytes"
vector 212 BluetoothNetwork.slave2.wlan[0].mac packetDropQueueOverflow:vector(packetBytes) ETV
attr interpolationmode none
attr recordingmode vector(packetBytes)
attr source packetDropReasonIsQueueOverflow(packetDropped)
attr title "packet drops: queue overflow, packetBytes"
vector 213 BluetoothNetwork.slave2.wlan[0].mac packetDropRetryLimitReached:vector(packetBytes) ETV
attr interpolationmode none
attr recordingmode vector(packetBytes)
attr source packetDropReasonIsRetryLimitReached(packetDropped)
attr title "packet drops: retry limit reached, packetBytes"
vector 214 BluetoothNetwork.slave2.wlan[0].mac packetDropDuplicateDetected:vector(packetBytes) ETV
attr interpolationmode none
attr recordingmode vector(packetBytes)
attr source packetDropReasonIsDuplicateDetected(packetDropped)
attr title "packet drops: duplicate detected, packetBytes"
vector 215 BluetoothNetwork.slave2.wlan[0].mac packetDropOther:vector(packetBytes) ETV
attr interpolationmode none
attr recordingmode vector(packetBytes)
attr source packetDropReasonIsOther(packetDropped)
attr title "packet drops: other, packetBytes"
vector 216 BluetoothNetwork.slave2.wlan[0].radio radioMode:vector ETV
attr enum OFF,SLEEP,RECEIVER,TRANSMITTER,TRANSCEIVER,SWITCHING
attr interpolationmode sample-hold
attr recordingmode vector
attr source radioModeChanged
attr title "Radio mode"
attr type enum
vector 217 BluetoothNetwork.slave2.wlan[0].radio receptionState:vector ETV
attr enum UNDEFINED,IDLE,BUSY,RECEIVING
attr interpolationmode sample-hold
attr recordingmode vector
attr source receptionStateChanged
attr title "Radio reception state"
attr type enum
vector 218 BluetoothNetwork.slave2.wlan[0].radio transmissionState:vector ETV
attr enum UNDEFINED,IDLE,TRANSMITTING
attr interpolationmode sample-hold
attr recordingmode vector
attr source transmissionStateChanged
attr title "Radio transmission state"
attr type enum
vector 219 BluetoothNetwork.slave2.wlan[0].radio radioChannel:vector ETV
attr interpolationmode sample-hold
attr recordingmode vector
attr source radioChannelChanged
attr title "Radio channel"
vector 220 BluetoothNetwork.slave2.wlan[0] packetDropInterfaceDown:vector(packetBytes) ETV
attr interpolationmode none
attr recordingmode vector(packetBytes)
attr source packetDropReasonIsInterfaceDown(packetDropped)
attr title "packet drops: interface down, packetBytes"
vector 221 BluetoothNetwork.slave2.wlan[0] packetDropNoCarrier:vector(packetBytes) ETV
attr interpolationmode none
attr recordingmode vector(packetBytes)
attr source packetDropReasonIsNoCarrier(packetDropped)
attr title "packet drops: no carrier, packetBytes"
vector 222 BluetoothNetwork.slave2.ipv4.ip packetDropAddressResolutionFailed:vector(packetBytes) ETV
attr interpolationmode none
attr recordingmode vector(packetBytes)
attr source packetDropReasonIsAddressResolutionFailed(packetDropped)
attr title "packet drop: address resolution failed, packetBytes"
vector 223 BluetoothNetwork.slave2.ipv4.ip packetDropHopLimitReached:vector(packetBytes) ETV
attr interpolationmode none
attr recordingmode vector(packetBytes)
attr source packetDropReasonIsHopLimitReached(packetDropped)
attr title "packet drop: hop limit reached, packetBytes"
vector 224 BluetoothNetwork.slave2.ipv4.ip packetDropForwardingDisabled:vector(packetBytes) ETV
attr interpolationmode none
attr recordingmode vector(packetBytes)
attr source packetDropReasonIsForwardingDisabled(packetDropped)
attr title "packet drop: forwarding disabled, packetBytes"
vector 225 BluetoothNetwork.slave2.ipv4.ip packetDropLifetimeExpired:vector(packetBytes) ETV
attr interpolationmode none
attr recordingmode vector(packetBytes)
attr source packetDropReasonIsLifetimeExpired(packetDropped)
attr title "packet drop: lifetime expired, packetBytes"
vector 226 BluetoothNetwork.slave2.ipv4.ip packetDropNoInterfaceFound:vector(packetBytes) ETV
attr interpolationmode none
attr recordingmode vector(packetBytes)
attr source packetDropReasonIsNoInterfaceFound(packetDropped)
attr title "packet drop: no interface found, packetBytes"
vector 227 BluetoothNetwork.slave2.ipv4.ip packetDropNoRouteFound:vector(packetBytes) ETV
attr interpolationmode none
attr recordingmode vector(packetBytes)
attr source packetDropReasonIsNoRouteFound(packetDropped)
attr title "packet drop: no route found, packetBytes"
vector 228 BluetoothNetwork.slave2.ipv4.ip packetDropUndefined:vector(packetBytes) ETV
attr interpolationmode none
attr recordingmode vector(packetBytes)
attr source packetDropReasonIsUndefined(packetDropped)
attr title "packet drop: undefined, packetBytes"
vector 229 BluetoothNetwork.slave2.ipv4.arp arpRequestSent:vector(packetBytes) ETV
attr recordingmode vector(packetBytes)
attr source arpRequestSent
attr title "ARP request sent, packetBytes"
vector 230 BluetoothNetwork.slave2.ipv4.arp arpReplySent:vector(packetBytes) ETV
attr recordingmode vector(packetBytes)
attr source arpReplySent
attr title "ARP replies sent, packetBytes"
vector 231 BluetoothNetwork.slave2.udp packetSent:vector(packetBytes) ETV
attr interpolationmode none
attr recordingmode vector(packetBytes)
attr source packetSent
attr title "packets sent, packetBytes"
vector 232 BluetoothNetwork.slave2.udp outgoingDataRate:vector ETV
attr interpolationmode linear
attr recordingmode vector
attr source throughput(packetSent)
attr title "outgoing datarate"
attr unit bps
vector 233 BluetoothNetwork.slave2.udp packetReceived:vector(packetBytes) ETV
attr interpolationmode none
attr recordingmode vector(packetBytes)
attr source packetReceived
attr title "packets received, packetBytes"
vector 234 BluetoothNetwork.slave2.udp passedUpPk:vector(count) ETV
attr interpolationmode none
attr recordingmode vector(count)
attr source packetSentToUpper
attr title "packets passed up, count"
vector 235 BluetoothNetwork.slave2.udp droppedPkWrongPort:vector(count) ETV
attr interpolationmode none
attr recordingmode vector(count)
attr source packetDropReasonIsNoPortFound(packetDropped)
attr title "packets dropped (wrong port), count"
vector 236 BluetoothNetwork.slave2.udp droppedPkBadChecksum:vector(count) ETV
attr interpolationmode none
attr recordingmode vector(count)
attr source packetDropReasonIsIncorrectlyReceived(packetDropped)
attr title "packets dropped (checksum error), count"
vector 237 BluetoothNetwork.slave2.app[0] packetReceived:vector(packetBytes) ETV
attr interpolationmode none
attr recordingmode vector(packetBytes)
attr source packetReceived
attr title "packets received, packetBytes"
vector 238 BluetoothNetwork.slave2.app[0] throughput:vector ETV
attr recordingmode vector
attr source throughput(packetReceived)
attr title throughput
attr unit bps
vector 239 BluetoothNetwork.slave2.app[0] endToEndDelay:vector ETV
attr interpolationmode none
attr recordingmode vector
attr source dataAge(packetReceived)
attr title "end-to-end delay"
attr unit s
vector 240 BluetoothNetwork.slave2.app[0] rcvdPkSeqNo:vector ETV
attr interpolationmode none
attr recordingmode vector
attr source appPkSeqNo(packetReceived)
attr title "received packet sequence number"
vector 241 BluetoothNetwork.slave3.lo[0].lo rcvdPkFromHl:vector(packetBytes) ETV
attr interpolationmode none
attr recordingmode vector(packetBytes)
attr source packetReceivedFromUpper
attr title "packets received from higher layer, packetBytes"
vector 242 BluetoothNetwork.slave3.lo[0].lo passedUpPk:vector(packetBytes) ETV
attr interpolationmode none
attr recordingmode vector(packetBytes)
attr source packetSentToUpper
attr title "packets passed to higher layer, packetBytes"
vector 243 BluetoothNetwork.slave3.lo[0] packetDropInterfaceDown:vector(packetBytes) ETV
attr interpolationmode none
attr recordingmode vector(packetBytes)
attr source packetDropReasonIsInterfaceDown(packetDropped)
attr title "packet drops: interface down, packetBytes"
vector 244 BluetoothNetwork.slave3.lo[0] packetDropNoCarrier:vector(packetBytes) ETV
attr interpolationmode none
attr recordingmode vector(packetBytes)
attr source packetDropReasonIsNoCarrier(packetDropped)
attr title "packet drops: no carrier, packetBytes"
vector 245 BluetoothNetwork.slave3.wlan[0].agent sentRequest:vector ETV
attr recordingmode vector
attr title "sent requests"
vector 246 BluetoothNetwork.slave3.wlan[0].agent acceptConfirm:vector ETV
attr recordingmode vector
attr title "accepted confirms"
vector 247 BluetoothNetwork.slave3.wlan[0].agent dropConfirm:vector ETV
attr recordingmode vector
attr title "dropped confirms"
vector 248 BluetoothNetwork.slave3.wlan[0].mac.dcf.channelAccess.pendingQueue queueLength:vector ETV
attr autoWarmupFilter false
attr interpolationmode sample-hold
attr recordingmode vector
attr source "warmup(atomic(constant0(packetPushEnded) + count(packetPushStarted) - count(packetPulled) - count(packetRemoved) - count(packetDropped)))"
attr title "queue length"
attr unit pk
vector 249 BluetoothNetwork.slave3.wlan[0].mac.dcf.channelAccess.pendingQueue queueBitLength:vector ETV
attr autoWarmupFilter false
attr interpolationmode sample-hold
attr recordingmode vector
attr source "warmup(atomic(constant0(packetPushEnded) + sum(packetLength(packetPushStarted)) - sum(packetLength(packetPulled)) - sum(packetLength(packetRemoved)) - sum(packetLength(packetDropped))))"
attr title "queue bit length"
attr unit b
vector 250 BluetoothNetwork.slave3.wlan[0].mac.dcf.channelAccess.pendingQueue queueingTime:vector ETV
attr interpolationmode none
attr recordingmode vector
attr source queueingTime(packetPulled)
attr title "queueing times"
attr unit s
vector 251 BluetoothNetwork.slave3.wlan[0].mac.dcf.channelAccess.pendingQueue incomingPacketLengths:vector ETV
attr interpolationmode none
attr recordingmode vector
attr source packetLength(packetPushStarted)
attr title "incoming packet lengths"
attr unit b
vector 252 BluetoothNetwork.slave3.wlan[0].mac.dcf.channelAccess.pendingQueue incomingDataRate:vector ETV
attr interpolationmode linear
attr recordingmode vector
attr source throughput(packetPushStarted)
attr title "incoming datarate"
attr unit bps
vector 253 BluetoothNetwork.slave3.wlan[0].mac.dcf.channelAccess.pendingQueue outgoingPacketLengths:vector ETV
attr interpolationmode none
attr recordingmode vector
attr source packetLength(packetPulled)
attr title "outgoing packet lengths"
attr unit b
vector 254 BluetoothNetwork.slave3.wlan[0].mac.dcf.channelAccess.pendingQueue outgoingDataRate:vector ETV
attr interpolationmode linear
attr recordingmode vector
attr source throughput(packetPulled)
attr title "outgoing datarate"
attr unit bps
vector 255 BluetoothNetwork.slave3.wlan[0].mac.dcf.channelAccess.pendingQueue droppedPacketLengthsQueueOverflow:vector ETV
attr interpolationmode none
attr recordingmode vector
attr source packetLength(packetDropReasonIsQueueOverflow(packetDropped))
attr title "dropped packet lengths: queue overflow"
attr unit b
vector 256 BluetoothNetwork.slave3.wlan[0].mac.dcf.channelAccess.pendingQueue flowQueueingTime:vector ETV
attr interpolationmode none
attr recordingmode vector
attr source queueingTime(demuxFlow(packetPulled))
attr title "flow queueing times"
attr unit s
vector 257 BluetoothNetwork.slave3.wlan[0].mac.dcf.channelAccess.pendingQueue flowIncomingDataRate:vector ETV
attr interpolationmode linear
attr recordingmode vector
attr source throughput(flowPacketLength(demuxFlow(packetPushStarted)))
attr title "flow specific incoming data rate"
attr unit bps
vector 258 BluetoothNetwork.slave3.wlan[0].mac.dcf.channelAccess.pendingQueue flowOutgoingDataRate:vector ETV
attr interpolationmode linear
attr recordingmode vector
attr source throughput(flowPacketLength(demuxFlow(packetPulled)))
attr title "flow specific outgoing data rate"
attr unit bps
vector 259 BluetoothNetwork.slave3.wlan[0].mac.dcf.channelAccess.inProgressFrames queueingTime:vector ETV
attr interpolationmode none
attr recordingmode vector
attr source queueingTime(packetDequeued)
attr title "queueing times"
vector 260 BluetoothNetwork.slave3.wlan[0].mac.dcf.channelAccess.inProgressFrames queueLength:vector ETV
attr autoWarmupFilter false
attr interpolationmode sample-hold
attr recordingmode vector
attr source "warmup(count(packetEnqueued) - count(packetDequeued))"
attr title "queue length"
vector 261 BluetoothNetwork.slave3.wlan[0].mac.dcf.channelAccess.contention backoffPeriodGenerated:vector ETV
attr interpolationmode none
attr recordingmode vector
attr title "backoff periods"
vector 262 BluetoothNetwork.slave3.wlan[0].mac.dcf.channelAccess.contention backoffActive:vector ETV
attr autoWarmupFilter false
attr interpolationmode sample-hold
attr recordingmode vector
attr source warmup(count(backoffStarted)-count(backoffStopped))
attr title "backoff active"
vector 263 BluetoothNetwork.slave3.wlan[0].mac.dcf.channelAccess.contention stateChanged:vector ETV
attr enum IDLE,DEFER,IFS_AND_BACKOFF
attr interpolationmode none
attr recordingmode vector
attr title "contention state changed"
attr type enum
vector 264 BluetoothNetwork.slave3.wlan[0].mac.dcf.recipientMacDataService packetDropDuplicateDetected:vector(packetBytes) ETV
attr interpolationmode none
attr recordingmode vector(packetBytes)
attr source packetDropReasonIsDuplicateDetected(packetDropped)
attr title "packet drops: duplicate detected, packetBytes"
vector 265 BluetoothNetwork.slave3.wlan[0].mac.dcf.recoveryProcedure contentionWindowChanged:vector ETV
attr interpolationmode sample-hold
attr recordingmode vector
attr title "contention window"
vector 266 BluetoothNetwork.slave3.wlan[0].mac.dcf packetSentToPeer:vector(packetBytes) ETV
attr interpolationmode none
attr recordingmode vector(packetBytes)
attr title "packets sent, packetBytes"
vector 267 BluetoothNetwork.slave3.wlan[0].mac.dcf packetSentToPeerUnicast:vector(packetBytes) ETV
attr interpolationmode none
attr recordingmode vector(packetBytes)
attr source ieee80211Unicast(packetSentToPeer)
attr title "packets sent: unicast, packetBytes"
vector 268 BluetoothNetwork.slave3.wlan[0].mac.dcf packetSentToPeerMulticast:vector(packetBytes) ETV
attr interpolationmode none
attr recordingmode vector(packetBytes)
attr source ieee80211Multicast(packetSentToPeer)
attr title "packets sent: multicast, packetBytes"
vector 269 BluetoothNetwork.slave3.wlan[0].mac.dcf packetSentToPeerBroadcast:vector(packetBytes) ETV
attr interpolationmode none
attr recordingmode vector(packetBytes)
attr source ieee80211Broadcast(packetSentToPeer)
attr title "packets sent: broadcast , packetBytes"
vector 270 BluetoothNetwork.slave3.wlan[0].mac.dcf packetSentToPeerWithRetry:vector(packetBytes) ETV
attr interpolationmode none
attr recordingmode vector(packetBytes)
attr source ieee80211Retry(packetSentToPeer)
attr title "packets sent: with retry, packetBytes"
vector 271 BluetoothNetwork.slave3.wlan[0].mac.dcf packetSentToPeerWithoutRetry:vector(packetBytes) ETV
attr interpolationmode none
attr recordingmode vector(packetBytes)
attr source ieee80211NotRetry(packetSentToPeer)
attr title "packets sent: without retry, packetBytes"
vector 272 BluetoothNetwork.slave3.wlan[0].mac.dcf packetReceivedFromPeer:vector(packetBytes) ETV
attr interpolationmode none
attr recordingmode vector(packetBytes)
attr title "packets received, packetBytes"
vector 273 BluetoothNetwork.slave3.wlan[0].mac.dcf packetReceivedFromPeerUnicast:vector(packetBytes) ETV
attr interpolationmode none
attr recordingmode vector(packetBytes)
attr source ieee80211Unicast(packetReceivedFromPeer)
attr title "packets received: unicast, packetBytes"
vector 274 BluetoothNetwork.slave3.wlan[0].mac.dcf packetReceivedFromPeerMulticast:vector(packetBytes) ETV
attr interpolationmode none
attr recordingmode vector(packetBytes)
attr source ieee80211Multicast(packetReceivedFromPeer)
attr title "packets received: multicast, packetBytes"
vector 275 BluetoothNetwork.slave3.wlan[0].mac.dcf packetReceivedFromPeerBroadcast:vector(packetBytes) ETV
attr interpolationmode none
attr recordingmode vector(packetBytes)
attr source ieee80211Broadcast(packetReceivedFromPeer)
attr title "packets received: broadcast, packetBytes"
vector 276 BluetoothNetwork.slave3.wlan[0].mac.dcf packetReceivedFromPeerWithRetry:vector(packetBytes) ETV
attr interpolationmode none
attr recordingmode vector(packetBytes)
attr source ieee80211Retry(packetReceivedFromPeer)
attr title "packets received: with retry, packetBytes"
vector 277 BluetoothNetwork.slave3.wlan[0].mac.dcf packetReceivedFromPeerWithoutRetry:vector(packetBytes) ETV
attr interpolationmode none
attr recordingmode vector(packetBytes)
attr source ieee80211NotRetry(packetReceivedFromPeer)
attr title "packets received: without retry, packetBytes"
vector 278 BluetoothNetwork.slave3.wlan[0].mac.dcf packetDrop:vector(packetBytes) ETV
attr interpolationmode none
attr recordingmode vector(packetBytes)
attr source packetDropped
attr title "packet drops, packetBytes"
vector 279 BluetoothNetwork.slave3.wlan[0].mac.dcf packetDropNotAddressedToUs:vector(packetBytes) ETV
attr interpolationmode none
attr recordingmode vector(packetBytes)
attr source packetDropReasonIsNotAddressedToUs(packetDropped)
attr title "packet drops: not addressed to us, packetBytes"
vector 280 BluetoothNetwork.slave3.wlan[0].mac.dcf packetDropQueueOverflow:vector(packetBytes) ETV
attr interpolationmode none
attr recordingmode vector(packetBytes)
attr source packetDropReasonIsQueueOverflow(packetDropped)
attr title "packet drops: queue overflow, packetBytes"
vector 281 BluetoothNetwork.slave3.wlan[0].mac.dcf packetDropRetryLimitReached:vector(packetBytes) ETV
attr interpolationmode none
attr recordingmode vector(packetBytes)
attr source packetDropReasonIsRetryLimitReached(packetDropped)
attr title "packet drops: retry limit reached, packetBytes"
vector 282 BluetoothNetwork.slave3.wlan[0].mac.dcf frameSequenceActive:vector ETV
attr autoWarmupFilter false
attr interpolationmode sample-hold
attr recordingmode vector
attr source warmup(count(frameSequenceStarted)-count(frameSequenceFinished))
attr title "frame sequence active"
vector 283 BluetoothNetwork.slave3.wlan[0].mac.dcf datarateSelected:vector ETV
attr interpolationmode none
attr recordingmode vector
attr title "datarates selected"
vector 284 BluetoothNetwork.slave3.wlan[0].mac.rx nav:vector ETV
attr interpolationmode linear
attr recordingmode vector
attr source navChanged
attr title "network allocation vector"
vector 285 BluetoothNetwork.slave3.wlan[0].mac packetSentToUpper:vector(packetBytes) ETV
attr interpolationmode none
attr recordingmode vector(packetBytes)
attr title "packets sent to upper layer, packetBytes"
vector 286 BluetoothNetwork.slave3.wlan[0].mac packetSentToLower:vector(packetBytes) ETV
attr interpolationmode none
attr recordingmode vector(packetBytes)
attr title "packets sent to lower layer, packetBytes"
vector 287 BluetoothNetwork.slave3.wlan[0].mac packetReceivedFromUpper:vector(packetBytes) ETV
attr interpolationmode none
attr recordingmode vector(packetBytes)
attr title "packets received from upper layer, packetBytes"
vector 288 BluetoothNetwork.slave3.wlan[0].mac packetReceivedFromLower:vector(packetBytes) ETV
attr interpolationmode none
attr recordingmode vector(packetBytes)
attr title "packets received from lower layer, packetBytes"
vector 289 BluetoothNetwork.slave3.wlan[0].mac packetDrop:vector(packetBytes) ETV
attr interpolationmode none
attr recordingmode vector(packetBytes)
attr source packetDropped
attr title "packet drops, packetBytes"
vector 290 BluetoothNetwork.slave3.wlan[0].mac packetDropIncorrectlyReceived:vector(packetBytes) ETV
attr interpolationmode none
attr recordingmode vector(packetBytes)
attr source packetDropReasonIsIncorrectlyReceived(packetDropped)
attr title "packet drops: incorrectly received, packetBytes"
vector 291 BluetoothNetwork.slave3.wlan[0].mac packetDropNotAddressedToUs:vector(packetBytes) ETV
attr interpolationmode none
attr recordingmode vector(packetBytes)
attr source packetDropReasonIsNotAddressedToUs(packetDropped)
attr title "packet drops: not addressed to us, packetBytes"
vector 292 BluetoothNetwork.slave3.wlan[0].mac packetDropQueueOverflow:vector(packetBytes) ETV
attr interpolationmode none
attr recordingmode vector(packetBytes)
attr source packetDropReasonIsQueueOverflow(packetDropped)
attr title "packet drops: queue overflow, packetBytes"
vector 293 BluetoothNetwork.slave3.wlan[0].mac packetDropRetryLimitReached:vector(packetBytes) ETV
attr interpolationmode none
attr recordingmode vector(packetBytes)
attr source packetDropReasonIsRetryLimitReached(packetDropped)
attr title "packet drops: retry limit reached, packetBytes"
vector 294 BluetoothNetwork.slave3.wlan[0].mac packetDropDuplicateDetected:vector(packetBytes) ETV
attr interpolationmode none
attr recordingmode vector(packetBytes)
attr source packetDropReasonIsDuplicateDetected(packetDropped)
attr title "packet drops: duplicate detected, packetBytes"
vector 295 BluetoothNetwork.slave3.wlan[0].mac packetDropOther:vector(packetBytes) ETV
attr interpolationmode none
attr recordingmode vector(packetBytes)
attr source packetDropReasonIsOther(packetDropped)
attr title "packet drops: other, packetBytes"
vector 296 BluetoothNetwork.slave3.wlan[0].radio radioMode:vector ETV
attr enum OFF,SLEEP,RECEIVER,TRANSMITTER,TRANSCEIVER,SWITCHING
attr interpolationmode sample-hold
attr recordingmode vector
attr source radioModeChanged
attr title "Radio mode"
attr type enum
vector 297 BluetoothNetwork.slave3.wlan[0].radio receptionState:vector ETV
attr enum UNDEFINED,IDLE,BUSY,RECEIVING
attr interpolationmode sample-hold
attr recordingmode vector
attr source receptionStateChanged
attr title "Radio reception state"
attr type enum
vector 298 BluetoothNetwork.slave3.wlan[0].radio transmissionState:vector ETV
attr enum UNDEFINED,IDLE,TRANSMITTING
attr interpolationmode sample-hold
attr recordingmode vector
attr source transmissionStateChanged
attr title "Radio transmission state"
attr type enum
vector 299 BluetoothNetwork.slave3.wlan[0].radio radioChannel:vector ETV
attr interpolationmode sample-hold
attr recordingmode vector
attr source radioChannelChanged
attr title "Radio channel"
vector 300 BluetoothNetwork.slave3.wlan[0] packetDropInterfaceDown:vector(packetBytes) ETV
attr interpolationmode none
attr recordingmode vector(packetBytes)
attr source packetDropReasonIsInterfaceDown(packetDropped)
attr title "packet drops: interface down, packetBytes"
vector 301 BluetoothNetwork.slave3.wlan[0] packetDropNoCarrier:vector(packetBytes) ETV
attr interpolationmode none
attr recordingmode vector(packetBytes)
attr source packetDropReasonIsNoCarrier(packetDropped)
attr title "packet drops: no carrier, packetBytes"
vector 302 BluetoothNetwork.slave3.ipv4.ip packetDropAddressResolutionFailed:vector(packetBytes) ETV
attr interpolationmode none
[...]
419	1482	2.227139337186	0
419	1516	2.263465925713	0
419	1516	2.263465925713	0
419	1529	2.263507925713	0
419	1529	2.263507925713	0
419	1546	2.287069942829	0
419	1546	2.287069942829	0
419	1555	2.287111942829	0
419	1555	2.287111942829	0
419	1576	2.293769902348	0
419	1576	2.293769902348	0
419	1591	2.293811902348	0
419	1591	2.293811902348	0
419	1615	2.354177094596	0
419	1615	2.354177094596	0
419	1630	2.354219094596	0
419	1630	2.354219094596	0
419	1705	2.615314512467	0
419	1705	2.615314512467	2
419	1706	2.615314512467	2
419	1706	2.615314512467	0
419	1708	2.615314512467	0
419	1708	2.615314512467	0
419	1716	2.615356512467	0
419	1716	2.615356512467	0
419	1743	2.627097337186	0
419	1743	2.627097337186	0
419	1752	2.627139337186	0
419	1752	2.627139337186	0
419	1786	2.663465925713	0
419	1786	2.663465925713	0
421	0	0	31
422	78	0.215356512467	40
422	347	0.615356512467	40
422	617	1.015356512467	40
422	896	1.415356512467	40
422	1166	1.815356512467	40
422	1445	2.215356512467	40
422	1715	2.615356512467	40
424	78	0.215356512467	40
424	347	0.615356512467	40
424	617	1.015356512467	40
424	896	1.415356512467	40
424	1166	1.815356512467	40
424	1445	2.215356512467	40
424	1715	2.615356512467	40
425	78	0.215356512467	40
425	347	0.615356512467	40
425	617	1.015356512467	40
425	896	1.415356512467	40
425	1166	1.815356512467	40
425	1445	2.215356512467	40
425	1715	2.615356512467	40
427	78	0.215356512467	40
427	347	0.615356512467	40
427	617	1.015356512467	40
427	896	1.415356512467	40
427	1166	1.815356512467	40
427	1445	2.215356512467	40
427	1715	2.615356512467	40
428	116	0.227139337186	40
428	163	0.263507925713	40
428	189	0.287111942829	40
428	224	0.293811902348	40
428	263	0.354219094596	40
428	385	0.627139337186	40
428	433	0.663507925713	40
428	459	0.687111942829	40
428	494	0.693811902348	40
428	533	0.754219094596	40
428	658	1.027139337186	40
428	709	1.063507925713	40
428	735	1.087111942829	40
428	770	1.093811902348	40
428	812	1.154219094596	40
428	934	1.427139337186	40
428	982	1.463507925713	40
428	1008	1.487111942829	40
428	1043	1.493811902348	40
428	1082	1.554219094596	40
428	1204	1.827139337186	40
428	1252	1.863507925713	40
428	1278	1.887111942829	40
428	1313	1.893811902348	40
428	1352	1.954219094596	40
428	1483	2.227139337186	40
428	1531	2.263507925713	40
428	1557	2.287111942829	40
428	1592	2.293811902348	40
428	1631	2.354219094596	40
428	1753	2.627139337186	40
430	116	0.227139337186	40
430	163	0.263507925713	40
430	189	0.287111942829	40
430	224	0.293811902348	40
430	263	0.354219094596	40
430	385	0.627139337186	40
430	433	0.663507925713	40
430	459	0.687111942829	40
430	494	0.693811902348	40
430	533	0.754219094596	40
430	658	1.027139337186	40
430	709	1.063507925713	40
430	735	1.087111942829	40
430	770	1.093811902348	40
430	812	1.154219094596	40
430	934	1.427139337186	40
430	982	1.463507925713	40
430	1008	1.487111942829	40
430	1043	1.493811902348	40
430	1082	1.554219094596	40
430	1204	1.827139337186	40
430	1252	1.863507925713	40
430	1278	1.887111942829	40
430	1313	1.893811902348	40
430	1352	1.954219094596	40
430	1483	2.227139337186	40
430	1531	2.263507925713	40
430	1557	2.287111942829	40
430	1592	2.293811902348	40
430	1631	2.354219094596	40
430	1753	2.627139337186	40
431	116	0.227139337186	40
431	163	0.263507925713	40
431	189	0.287111942829	40
431	224	0.293811902348	40
431	263	0.354219094596	40
431	385	0.627139337186	40
431	433	0.663507925713	40
431	459	0.687111942829	40
431	494	0.693811902348	40
431	533	0.754219094596	40
431	658	1.027139337186	40
431	709	1.063507925713	40
431	735	1.087111942829	40
431	770	1.093811902348	40
431	812	1.154219094596	40
431	934	1.427139337186	40
431	982	1.463507925713	40
431	1008	1.487111942829	40
431	1043	1.493811902348	40
431	1082	1.554219094596	40
431	1204	1.827139337186	40
431	1252	1.863507925713	40
431	1278	1.887111942829	40
431	1313	1.893811902348	40
431	1352	1.954219094596	40
431	1483	2.227139337186	40
431	1531	2.263507925713	40
431	1557	2.287111942829	40
431	1592	2.293811902348	40
431	1631	2.354219094596	40
431	1753	2.627139337186	40
433	116	0.227139337186	40
433	163	0.263507925713	40
433	189	0.287111942829	40
433	224	0.293811902348	40
433	263	0.354219094596	40
433	385	0.627139337186	40
433	433	0.663507925713	40
433	459	0.687111942829	40
433	494	0.693811902348	40
433	533	0.754219094596	40
433	658	1.027139337186	40
433	709	1.063507925713	40
433	735	1.087111942829	40
433	770	1.093811902348	40
433	812	1.154219094596	40
433	934	1.427139337186	40
433	982	1.463507925713	40
433	1008	1.487111942829	40
433	1043	1.493811902348	40
433	1082	1.554219094596	40
433	1204	1.827139337186	40
433	1252	1.863507925713	40
433	1278	1.887111942829	40
433	1313	1.893811902348	40
433	1352	1.954219094596	40
433	1483	2.227139337186	40
433	1531	2.263507925713	40
433	1557	2.287111942829	40
433	1592	2.293811902348	40
433	1631	2.354219094596	40
433	1753	2.627139337186	40
438	0	0	0
438	0	0	0
438	70	0.215314512467	1
438	78	0.215356512467	0
438	339	0.615314512467	1
438	347	0.615356512467	0
438	609	1.015314512467	1
438	617	1.015356512467	0
438	888	1.415314512467	1
438	896	1.415356512467	0
438	1158	1.815314512467	1
438	1166	1.815356512467	0
438	1437	2.215314512467	1
438	1445	2.215356512467	0
438	1707	2.615314512467	1
438	1715	2.615356512467	0
439	70	0.215314512467	24000000
439	339	0.615314512467	24000000
439	609	1.015314512467	24000000
439	888	1.415314512467	24000000
439	1158	1.815314512467	24000000
439	1437	2.215314512467	24000000
439	1707	2.615314512467	24000000
442	70	0.215314512467	40
442	339	0.615314512467	40
442	609	1.015314512467	40
442	888	1.415314512467	40
442	1158	1.815314512467	40
442	1437	2.215314512467	40
442	1707	2.615314512467	40
444	116	0.227139337186	40
444	163	0.263507925713	40
444	189	0.287111942829	40
444	224	0.293811902348	40
444	263	0.354219094596	40
444	385	0.627139337186	40
444	433	0.663507925713	40
444	459	0.687111942829	40
444	494	0.693811902348	40
444	533	0.754219094596	40
444	658	1.027139337186	40
444	709	1.063507925713	40
444	735	1.087111942829	40
444	770	1.093811902348	40
444	812	1.154219094596	40
444	934	1.427139337186	40
444	982	1.463507925713	40
444	1008	1.487111942829	40
444	1043	1.493811902348	40
444	1082	1.554219094596	40
444	1204	1.827139337186	40
444	1252	1.863507925713	40
444	1278	1.887111942829	40
444	1313	1.893811902348	40
444	1352	1.954219094596	40
444	1483	2.227139337186	40
444	1531	2.263507925713	40
444	1557	2.287111942829	40
444	1592	2.293811902348	40
444	1631	2.354219094596	40
444	1753	2.627139337186	40
452	0	0	0
452	0	0	0
452	0	0	2
452	71	0.215314512467	3
452	79	0.215356512467	2
452	340	0.615314512467	3
452	348	0.615356512467	2
452	610	1.015314512467	3
452	618	1.015356512467	2
452	889	1.415314512467	3
452	897	1.415356512467	2
452	1159	1.815314512467	3
452	1167	1.815356512467	2
452	1438	2.215314512467	3
452	1446	2.215356512467	2
452	1708	2.615314512467	3
452	1716	2.615356512467	2
453	0	0	1
453	71	0.215314512467	0
453	79	0.215356512467	1
453	106	0.227097337186	3
453	115	0.227139337186	1
453	148	0.263465925713	3
453	161	0.263507925713	1
453	178	0.287069942829	3
453	187	0.287111942829	1
453	208	0.293769902348	3
453	223	0.293811902348	1
453	247	0.354177094596	3
453	262	0.354219094596	1
453	340	0.615314512467	0
453	348	0.615356512467	1
453	375	0.627097337186	3
453	384	0.627139337186	1
453	418	0.663465925713	3
453	431	0.663507925713	1
453	448	0.687069942829	3
453	457	0.687111942829	1
453	478	0.693769902348	3
453	493	0.693811902348	1
453	517	0.754177094596	3
453	532	0.754219094596	1
453	610	1.015314512467	0
453	618	1.015356512467	1
453	648	1.027097337186	3
453	657	1.027139337186	1
453	694	1.063465925713	3
453	707	1.063507925713	1
453	724	1.087069942829	3
453	733	1.087111942829	1
453	754	1.093769902348	3
453	769	1.093811902348	1
453	796	1.154177094596	3
453	811	1.154219094596	1
453	889	1.415314512467	0
453	897	1.415356512467	1
453	924	1.427097337186	3
453	933	1.427139337186	1
453	967	1.463465925713	3
453	980	1.463507925713	1
453	997	1.487069942829	3
453	1006	1.487111942829	1
453	1027	1.493769902348	3
453	1042	1.493811902348	1
453	1066	1.554177094596	3
453	1081	1.554219094596	1
453	1159	1.815314512467	0
453	1167	1.815356512467	1
453	1194	1.827097337186	3
453	1203	1.827139337186	1
453	1237	1.863465925713	3
453	1250	1.863507925713	1
453	1267	1.887069942829	3
453	1276	1.887111942829	1
453	1297	1.893769902348	3
453	1312	1.893811902348	1
453	1336	1.954177094596	3
453	1351	1.954219094596	1
453	1438	2.215314512467	0
453	1446	2.215356512467	1
453	1473	2.227097337186	3
453	1482	2.227139337186	1
453	1516	2.263465925713	3
453	1529	2.263507925713	1
453	1546	2.287069942829	3
453	1555	2.287111942829	1
453	1576	2.293769902348	3
453	1591	2.293811902348	1
453	1615	2.354177094596	3
453	1630	2.354219094596	1
453	1708	2.615314512467	0
453	1716	2.615356512467	1
453	1743	2.627097337186	3
453	1752	2.627139337186	1
453	1786	2.663465925713	3
454	71	0.215314512467	1
454	72	0.215314512467	2
454	78	0.215356512467	1
454	79	0.215356512467	0
454	340	0.615314512467	1
454	341	0.615314512467	2
454	347	0.615356512467	1
454	348	0.615356512467	0
454	610	1.015314512467	1
454	611	1.015314512467	2
454	617	1.015356512467	1
454	618	1.015356512467	0
454	889	1.415314512467	1
454	890	1.415314512467	2
454	896	1.415356512467	1
454	897	1.415356512467	0
454	1159	1.815314512467	1
454	1160	1.815314512467	2
454	1166	1.815356512467	1
454	1167	1.815356512467	0
454	1438	2.215314512467	1
454	1439	2.215314512467	2
454	1445	2.215356512467	1
454	1446	2.215356512467	0
454	1708	2.615314512467	1
454	1709	2.615314512467	2
454	1715	2.615356512467	1
454	1716	2.615356512467	0
455	0	0	0
455	33	0.115314512467	0
455	300	0.515314512467	0
455	570	0.915314512467	0
455	849	1.315314512467	0
455	1119	1.715314512467	0
455	1395	2.115314512467	0
455	1668	2.515314512467	0
470	0	0	0
471	0	0	0
472	0	0	0
11	1786	2.663493674984	5039.8720830167
13	1786	2.663493674984	5039.8720830167
16	1786	0.1	0
16	1786	0.2	0
16	1786	0.3	0
16	1786	0.4	0
16	1786	0.5	0
16	1786	0.6	0
16	1786	0.7	0
16	1786	0.8	0
16	1786	0.9	0
16	1786	1	0
16	1786	1.1	0
16	1786	1.2	0
16	1786	1.3	0
16	1786	1.4	0
16	1786	1.5	0
16	1786	1.6	0
16	1786	1.7	0
16	1786	1.8	0
16	1786	1.9	0
16	1786	2	0
16	1786	2.1	0
16	1786	2.2	0
16	1786	2.3	0
16	1786	2.4	0
16	1786	2.5	0
16	1786	2.6	0
16	1786	2.663493674984	0
17	1786	0.1	0
17	1786	0.2	0
17	1786	0.3	0
17	1786	0.4	0
17	1786	0.5	0
17	1786	0.6	0
17	1786	0.7	0
17	1786	0.8	0
17	1786	0.9	0
17	1786	1	0
17	1786	1.1	0
17	1786	1.2	0
17	1786	1.3	0
17	1786	1.4	0
17	1786	1.5	0
17	1786	1.6	0
17	1786	1.7	0
17	1786	1.8	0
17	1786	1.9	0
17	1786	2	0
17	1786	2.1	0
17	1786	2.2	0
17	1786	2.3	0
17	1786	2.4	0
17	1786	2.5	0
17	1786	2.6	0
17	1786	2.663493674984	0
71	1786	2.663493674984	104829.33932675
77	1786	0.1	0
77	1786	0.2	0
77	1786	0.3	0
77	1786	0.4	0
77	1786	0.5	0
77	1786	0.6	0
77	1786	0.7	0
77	1786	0.8	0
77	1786	0.9	0
77	1786	1	0
77	1786	1.1	0
77	1786	1.2	0
77	1786	1.3	0
77	1786	1.4	0
77	1786	1.5	0
77	1786	1.6	0
77	1786	1.7	0
77	1786	1.8	0
77	1786	1.9	0
77	1786	2	0
77	1786	2.1	0
77	1786	2.2	0
77	1786	2.3	0
77	1786	2.4	0
77	1786	2.5	0
77	1786	2.6	0
77	1786	2.663493674984	0
92	1786	2.4	3200
92	1786	2.5	0
92	1786	2.6	0
92	1786	2.663493674984	0
94	1786	2.4	3200
94	1786	2.5	0
94	1786	2.6	0
94	1786	2.663493674984	0
97	1786	0.1	0
97	1786	0.2	0
97	1786	0.3	0
97	1786	0.4	0
97	1786	0.5	0
97	1786	0.6	0
97	1786	0.7	0
97	1786	0.8	0
97	1786	0.9	0
97	1786	1	0
97	1786	1.1	0
97	1786	1.2	0
97	1786	1.3	0
97	1786	1.4	0
97	1786	1.5	0
97	1786	1.6	0
97	1786	1.7	0
97	1786	1.8	0
97	1786	1.9	0
97	1786	2	0
97	1786	2.1	0
97	1786	2.2	0
97	1786	2.3	0
97	1786	2.4	0
97	1786	2.5	0
97	1786	2.6	0
97	1786	2.663493674984	0
98	1786	0.1	0
98	1786	0.2	0
98	1786	0.3	0
98	1786	0.4	0
98	1786	0.5	0
98	1786	0.6	0
98	1786	0.7	0
98	1786	0.8	0
98	1786	0.9	0
98	1786	1	0
98	1786	1.1	0
98	1786	1.2	0
98	1786	1.3	0
98	1786	1.4	0
98	1786	1.5	0
98	1786	1.6	0
98	1786	1.7	0
98	1786	1.8	0
98	1786	1.9	0
98	1786	2	0
98	1786	2.1	0
98	1786	2.2	0
98	1786	2.3	0
98	1786	2.4	0
98	1786	2.5	0
98	1786	2.6	0
98	1786	2.663493674984	0
152	1786	0.1	0
152	1786	0.2	0
152	1786	0.3	0
152	1786	0.4	0
152	1786	0.5	0
152	1786	0.6	0
152	1786	0.7	0
152	1786	0.8	0
152	1786	0.9	0
152	1786	1	0
152	1786	1.1	0
152	1786	1.2	0
152	1786	1.3	0
152	1786	1.4	0
152	1786	1.5	0
152	1786	1.6	0
152	1786	1.7	0
152	1786	1.8	0
152	1786	1.9	0
152	1786	2	0
152	1786	2.1	0
152	1786	2.2	0
152	1786	2.3	0
152	1786	2.4	0
152	1786	2.5	0
152	1786	2.6	0
152	1786	2.663493674984	0
158	1786	0.1	0
158	1786	0.2	0
158	1786	0.3	0
158	1786	0.4	0
158	1786	0.5	0
158	1786	0.6	0
158	1786	0.7	0
158	1786	0.8	0
158	1786	0.9	0
158	1786	1	0
158	1786	1.1	0
158	1786	1.2	0
158	1786	1.3	0
158	1786	1.4	0
158	1786	1.5	0
158	1786	1.6	0
158	1786	1.7	0
158	1786	1.8	0
158	1786	1.9	0
158	1786	2	0
158	1786	2.1	0
158	1786	2.2	0
158	1786	2.3	0
158	1786	2.4	0
158	1786	2.5	0
158	1786	2.6	0
158	1786	2.663493674984	0
172	1786	2.663493674984	5039.8720830167
174	1786	2.663493674984	5039.8720830167
177	1786	0.1	0
177	1786	0.2	0
177	1786	0.3	0
177	1786	0.4	0
177	1786	0.5	0
177	1786	0.6	0
177	1786	0.7	0
177	1786	0.8	0
177	1786	0.9	0
177	1786	1	0
177	1786	1.1	0
177	1786	1.2	0
177	1786	1.3	0
177	1786	1.4	0
177	1786	1.5	0
177	1786	1.6	0
177	1786	1.7	0
177	1786	1.8	0
177	1786	1.9	0
177	1786	2	0
177	1786	2.1	0
177	1786	2.2	0
177	1786	2.3	0
177	1786	2.4	0
177	1786	2.5	0
177	1786	2.6	0
177	1786	2.663493674984	0
178	1786	0.1	0
178	1786	0.2	0
178	1786	0.3	0
178	1786	0.4	0
178	1786	0.5	0
178	1786	0.6	0
178	1786	0.7	0
178	1786	0.8	0
178	1786	0.9	0
178	1786	1	0
178	1786	1.1	0
178	1786	1.2	0
178	1786	1.3	0
178	1786	1.4	0
178	1786	1.5	0
178	1786	1.6	0
178	1786	1.7	0
178	1786	1.8	0
178	1786	1.9	0
178	1786	2	0
178	1786	2.1	0
178	1786	2.2	0
178	1786	2.3	0
178	1786	2.4	0
178	1786	2.5	0
178	1786	2.6	0
178	1786	2.663493674984	0
232	1786	0.1	0
232	1786	0.2	0
232	1786	0.3	0
232	1786	0.4	0
232	1786	0.5	0
232	1786	0.6	0
232	1786	0.7	0
232	1786	0.8	0
232	1786	0.9	0
232	1786	1	0
232	1786	1.1	0
232	1786	1.2	0
232	1786	1.3	0
232	1786	1.4	0
232	1786	1.5	0
232	1786	1.6	0
232	1786	1.7	0
232	1786	1.8	0
232	1786	1.9	0
232	1786	2	0
232	1786	2.1	0
232	1786	2.2	0
232	1786	2.3	0
232	1786	2.4	0
232	1786	2.5	0
232	1786	2.6	0
232	1786	2.663493674984	0
238	1786	0.1	0
238	1786	0.2	0
238	1786	0.3	0
238	1786	0.4	0
238	1786	0.5	0
238	1786	0.6	0
238	1786	0.7	0
238	1786	0.8	0
238	1786	0.9	0
238	1786	1	0
238	1786	1.1	0
238	1786	1.2	0
238	1786	1.3	0
238	1786	1.4	0
238	1786	1.5	0
238	1786	1.6	0
238	1786	1.7	0
238	1786	1.8	0
238	1786	1.9	0
238	1786	2	0
238	1786	2.1	0
238	1786	2.2	0
238	1786	2.3	0
238	1786	2.4	0
238	1786	2.5	0
238	1786	2.6	0
238	1786	2.663493674984	0
252	1786	2.3	3200
252	1786	2.4	0
252	1786	2.5	0
252	1786	2.6	0
252	1786	2.663493674984	0
254	1786	2.3	3200
254	1786	2.4	0
254	1786	2.5	0
254	1786	2.6	0
254	1786	2.663493674984	0
257	1786	0.1	0
257	1786	0.2	0
257	1786	0.3	0
257	1786	0.4	0
257	1786	0.5	0
257	1786	0.6	0
257	1786	0.7	0
257	1786	0.8	0
257	1786	0.9	0
257	1786	1	0
257	1786	1.1	0
257	1786	1.2	0
257	1786	1.3	0
257	1786	1.4	0
257	1786	1.5	0
257	1786	1.6	0
257	1786	1.7	0
257	1786	1.8	0
257	1786	1.9	0
257	1786	2	0
257	1786	2.1	0
257	1786	2.2	0
257	1786	2.3	0
257	1786	2.4	0
257	1786	2.5	0
257	1786	2.6	0
257	1786	2.663493674984	0
258	1786	0.1	0
258	1786	0.2	0
258	1786	0.3	0
258	1786	0.4	0
258	1786	0.5	0
258	1786	0.6	0
258	1786	0.7	0
258	1786	0.8	0
258	1786	0.9	0
258	1786	1	0
258	1786	1.1	0
258	1786	1.2	0
258	1786	1.3	0
258	1786	1.4	0
258	1786	1.5	0
258	1786	1.6	0
258	1786	1.7	0
258	1786	1.8	0
258	1786	1.9	0
258	1786	2	0
258	1786	2.1	0
258	1786	2.2	0
258	1786	2.3	0
258	1786	2.4	0
258	1786	2.5	0
258	1786	2.6	0
258	1786	2.663493674984	0
312	1786	0.1	0
312	1786	0.2	0
312	1786	0.3	0
312	1786	0.4	0
312	1786	0.5	0
312	1786	0.6	0
312	1786	0.7	0
312	1786	0.8	0
312	1786	0.9	0
312	1786	1	0
312	1786	1.1	0
312	1786	1.2	0
312	1786	1.3	0
312	1786	1.4	0
312	1786	1.5	0
312	1786	1.6	0
312	1786	1.7	0
312	1786	1.8	0
312	1786	1.9	0
312	1786	2	0
312	1786	2.1	0
312	1786	2.2	0
312	1786	2.3	0
312	1786	2.4	0
312	1786	2.5	0
312	1786	2.6	0
312	1786	2.663493674984	0
318	1786	0.1	0
318	1786	0.2	0
318	1786	0.3	0
318	1786	0.4	0
318	1786	0.5	0
318	1786	0.6	0
318	1786	0.7	0
318	1786	0.8	0
318	1786	0.9	0
318	1786	1	0
318	1786	1.1	0
318	1786	1.2	0
318	1786	1.3	0
318	1786	1.4	0
318	1786	1.5	0
318	1786	1.6	0
318	1786	1.7	0
318	1786	1.8	0
318	1786	1.9	0
318	1786	2	0
318	1786	2.1	0
318	1786	2.2	0
318	1786	2.3	0
318	1786	2.4	0
318	1786	2.5	0
318	1786	2.6	0
318	1786	2.663493674984	0
332	1786	2.3	3200
332	1786	2.4	0
332	1786	2.5	0
332	1786	2.6	0
332	1786	2.663493674984	0
334	1786	2.3	3200
334	1786	2.4	0
334	1786	2.5	0
334	1786	2.6	0
334	1786	2.663493674984	0
337	1786	0.1	0
337	1786	0.2	0
337	1786	0.3	0
337	1786	0.4	0
337	1786	0.5	0
337	1786	0.6	0
337	1786	0.7	0
337	1786	0.8	0
337	1786	0.9	0
337	1786	1	0
337	1786	1.1	0
337	1786	1.2	0
337	1786	1.3	0
337	1786	1.4	0
337	1786	1.5	0
337	1786	1.6	0
337	1786	1.7	0
337	1786	1.8	0
337	1786	1.9	0
337	1786	2	0
337	1786	2.1	0
337	1786	2.2	0
337	1786	2.3	0
337	1786	2.4	0
337	1786	2.5	0
337	1786	2.6	0
337	1786	2.663493674984	0
338	1786	0.1	0
338	1786	0.2	0
338	1786	0.3	0
338	1786	0.4	0
338	1786	0.5	0
338	1786	0.6	0
338	1786	0.7	0
338	1786	0.8	0
338	1786	0.9	0
338	1786	1	0
338	1786	1.1	0
338	1786	1.2	0
338	1786	1.3	0
338	1786	1.4	0
338	1786	1.5	0
338	1786	1.6	0
338	1786	1.7	0
338	1786	1.8	0
338	1786	1.9	0
338	1786	2	0
338	1786	2.1	0
338	1786	2.2	0
338	1786	2.3	0
338	1786	2.4	0
338	1786	2.5	0
338	1786	2.6	0
338	1786	2.663493674984	0
392	1786	0.1	0
392	1786	0.2	0
392	1786	0.3	0
392	1786	0.4	0
392	1786	0.5	0
392	1786	0.6	0
392	1786	0.7	0
392	1786	0.8	0
392	1786	0.9	0
392	1786	1	0
392	1786	1.1	0
392	1786	1.2	0
392	1786	1.3	0
392	1786	1.4	0
392	1786	1.5	0
392	1786	1.6	0
392	1786	1.7	0
392	1786	1.8	0
392	1786	1.9	0
392	1786	2	0
392	1786	2.1	0
392	1786	2.2	0
392	1786	2.3	0
392	1786	2.4	0
392	1786	2.5	0
392	1786	2.6	0
392	1786	2.663493674984	0
408	1786	2.663493674984	5039.8720830167
410	1786	2.663493674984	5039.8720830167
413	1786	0.1	0
413	1786	0.2	0
413	1786	0.3	0
413	1786	0.4	0
413	1786	0.5	0
413	1786	0.6	0
413	1786	0.7	0
413	1786	0.8	0
413	1786	0.9	0
413	1786	1	0
413	1786	1.1	0
413	1786	1.2	0
413	1786	1.3	0
413	1786	1.4	0
413	1786	1.5	0
413	1786	1.6	0
413	1786	1.7	0
413	1786	1.8	0
413	1786	1.9	0
413	1786	2	0
413	1786	2.1	0
413	1786	2.2	0
413	1786	2.3	0
413	1786	2.4	0
413	1786	2.5	0
413	1786	2.6	0
413	1786	2.663493674984	0
414	1786	0.1	0
414	1786	0.2	0
414	1786	0.3	0
414	1786	0.4	0
414	1786	0.5	0
414	1786	0.6	0
414	1786	0.7	0
414	1786	0.8	0
414	1786	0.9	0
414	1786	1	0
414	1786	1.1	0
414	1786	1.2	0
414	1786	1.3	0
414	1786	1.4	0
414	1786	1.5	0
414	1786	1.6	0
414	1786	1.7	0
414	1786	1.8	0
414	1786	1.9	0
414	1786	2	0
414	1786	2.1	0
414	1786	2.2	0
414	1786	2.3	0
414	1786	2.4	0
414	1786	2.5	0
414	1786	2.6	0
414	1786	2.663493674984	0
468	1786	0.1	0
468	1786	0.2	0
468	1786	0.3	0
468	1786	0.4	0
468	1786	0.5	0
468	1786	0.6	0
468	1786	0.7	0
468	1786	0.8	0
468	1786	0.9	0
468	1786	1	0
468	1786	1.1	0
468	1786	1.2	0
468	1786	1.3	0
468	1786	1.4	0
468	1786	1.5	0
468	1786	1.6	0
468	1786	1.7	0
468	1786	1.8	0
468	1786	1.9	0
468	1786	2	0
468	1786	2.1	0
468	1786	2.2	0
468	1786	2.3	0
468	1786	2.4	0
468	1786	2.5	0
468	1786	2.6	0
468	1786	2.663493674984	0

